23
[000067015_dft.out: Geometry 12]
C      3.3727130000    1.1585320000   -0.0550060000
C      3.2556290000   -0.2061300000   -0.0226400000
C      1.9761080000   -0.8205830000    0.0127570000
C      1.8752020000   -2.2414480000    0.0161520000
C      0.6622970000   -2.8721640000    0.0089300000
C     -0.5216050000   -2.1018430000    0.0014260000
C     -0.4618400000   -0.7304610000    0.0160780000
C      0.7906410000   -0.0224110000    0.0260930000
C      0.9591230000    1.4033390000    0.0125160000
C      2.2154260000    1.9613780000   -0.0350990000
H      2.2821450000    3.0508000000   -0.0530880000
O     -0.1036170000    2.2641000000   -0.0132840000
H     -0.7274980000    2.0498640000    0.7156060000
S     -2.0512170000    0.0736970000    0.0650870000
O     -2.0443950000    0.9961800000    1.2015770000
O     -3.0987870000   -0.9051440000   -0.0534370000
O     -2.0673620000    0.9304590000   -1.2834490000
H     -1.4141320000    1.6579130000   -1.1698820000
H     -1.5001100000   -2.5852450000   -0.0149770000
H      0.5967700000   -3.9619320000    0.0047800000
H      2.8005000000   -2.8233280000    0.0162010000
H      4.1422250000   -0.8444950000   -0.0322990000
H      4.3567850000    1.6309230000   -0.0905410000
