[014006941_dft.out: Geometry 9]
 OpenBabel09282115273D

 17 17  0  0  0  0  0  0  0  0999 V2000
   -2.7177   -0.8943   -0.0066 C   0  0  0  0  0  0  0  0  0  0  0  0
   -1.6053   -1.7236   -0.0292 C   0  0  0  0  0  0  0  0  0  0  0  0
   -0.3203   -1.1835   -0.0206 C   0  0  0  0  0  0  0  0  0  0  0  0
   -0.1644    0.2034    0.0021 C   0  0  0  0  0  0  0  0  0  0  0  0
   -1.2771    1.0398    0.0167 C   0  0  0  0  0  0  0  0  0  0  0  0
   -2.5625    0.4954    0.0140 C   0  0  0  0  0  0  0  0  0  0  0  0
   -3.6736    1.2535    0.0290 O   0  0  0  0  0  0  0  0  0  0  0  0
   -3.4392    2.1870    0.0433 H   0  0  0  0  0  0  0  0  0  0  0  0
   -1.1145    2.1210    0.0259 H   0  0  0  0  0  0  0  0  0  0  0  0
    1.4348    0.9975    0.0855 S   0  0  0  0  0  0  0  0  0  0  0  0
    2.1549    0.4679    1.2188 O   0  0  0  0  0  1  0  0  0  0  0  0
    1.2346    2.4124   -0.1003 O   0  0  0  0  0  1  0  0  0  0  0  0
    2.1395    0.4772   -1.2637 O   0  0  0  0  0  0  0  0  0  0  0  0
    2.4562   -0.4287   -1.1119 H   0  0  0  0  0  0  0  0  0  0  0  0
    1.0423   -2.2647   -0.0732 Cl  0  0  0  0  0  0  0  0  0  0  0  0
   -1.7264   -2.8082   -0.0543 H   0  0  0  0  0  0  0  0  0  0  0  0
   -3.7268   -1.3105   -0.0096 H   0  0  0  0  0  0  0  0  0  0  0  0
  1  6  1  0  0  0  0
  2  3  1  0  0  0  0
  2  1  2  0  0  0  0
  3  4  2  0  0  0  0
  4  5  1  0  0  0  0
  4 10  1  0  0  0  0
  5  9  1  0  0  0  0
  6  5  2  0  0  0  0
  6  7  1  0  0  0  0
  7  8  1  0  0  0  0
 10 11  1  0  0  0  0
 12 10  1  0  0  0  0
 13 14  1  0  0  0  0
 13 10  1  0  0  0  0
 15  3  1  0  0  0  0
 16  2  1  0  0  0  0
 17  1  1  0  0  0  0
M  END
$$$$
