-39.46113275
 OpenBabel09032119023D

 17 17  0  0  0  0  0  0  0  0999 V2000
   -2.7219   -0.8973   -0.0140 C   0  0  0  0  0  0  0  0  0  0  0  0
   -1.6175   -1.7248   -0.0071 C   0  0  0  0  0  0  0  0  0  0  0  0
   -0.3419   -1.1720    0.0155 C   0  0  0  0  0  0  0  0  0  0  0  0
   -0.1939    0.2009    0.0335 C   0  0  0  0  0  0  0  0  0  0  0  0
   -1.2915    1.0348    0.0239 C   0  0  0  0  0  0  0  0  0  0  0  0
   -2.5733    0.4916   -0.0015 C   0  0  0  0  0  0  0  0  0  0  0  0
   -3.6831    1.2569   -0.0137 O   0  0  0  0  0  0  0  0  0  0  0  0
   -3.4471    2.1935   -0.0021 H   0  0  0  0  0  0  0  0  0  0  0  0
   -1.1150    2.0998    0.0341 H   0  0  0  0  0  0  0  0  0  0  0  0
    1.4280    0.9504    0.0848 S   0  0  0  0  0  0  0  0  0  0  0  0
    2.2071    0.3788    1.1364 O   0  0  0  0  0  1  0  0  0  0  0  0
    1.2669    2.3629    0.0247 O   0  0  0  0  0  1  0  0  0  0  0  0
    2.0471    0.4686   -1.3154 O   0  0  0  0  0  0  0  0  0  0  0  0
    2.5732   -0.3271   -1.1980 H   0  0  0  0  0  0  0  0  0  0  0  0
    1.0518   -2.1713    0.0167 Cl  0  0  0  0  0  0  0  0  0  0  0  0
   -1.7360   -2.7962   -0.0210 H   0  0  0  0  0  0  0  0  0  0  0  0
   -3.7185   -1.3080   -0.0311 H   0  0  0  0  0  0  0  0  0  0  0  0
  1  2  2  0  0  0  0
  1  6  1  0  0  0  0
  2  3  1  0  0  0  0
  3 15  1  0  0  0  0
  3  4  2  0  0  0  0
  4 10  1  0  0  0  0
  5  4  1  0  0  0  0
  5  9  1  0  0  0  0
  6  5  2  0  0  0  0
  7  8  1  0  0  0  0
  7  6  1  0  0  0  0
 10 11  1  0  0  0  0
 12 10  1  0  0  0  0
 13 14  1  0  0  0  0
 13 10  1  0  0  0  0
 16  2  1  0  0  0  0
 17  1  1  0  0  0  0
M  END
$$$$
