[026338816_dft.out: Geometry 13]
 OpenBabel09282115273D

 17 17  0  0  0  0  0  0  0  0999 V2000
    0.3392    2.3096   -0.0002 C   0  0  0  0  0  0  0  0  0  0  0  0
    1.0088    0.9669   -0.0001 C   0  0  0  0  0  0  0  0  0  0  0  0
    2.3417    0.9572   -0.0001 N   0  0  0  0  0  0  0  0  0  0  0  0
    2.9952   -0.2012   -0.0001 C   0  0  0  0  0  0  0  0  0  0  0  0
    2.3695   -1.4452    0.0000 C   0  0  0  0  0  0  0  0  0  0  0  0
    0.9816   -1.4690    0.0001 C   0  0  0  0  0  0  0  0  0  0  0  0
    0.3000   -0.2539    0.0000 C   0  0  0  0  0  0  0  0  0  0  0  0
   -1.4647   -0.3185    0.0001 S   0  0  0  0  0  0  0  0  0  0  0  0
   -1.8721   -1.7019    0.0002 O   0  0  0  0  0  1  0  0  0  0  0  0
   -1.9713    0.5333   -1.1275 O   0  0  0  0  0  1  0  0  0  0  0  0
   -1.9713    0.5337    1.1273 O   0  0  0  0  0  1  0  0  0  0  0  0
    0.4180   -2.4044    0.0001 H   0  0  0  0  0  0  0  0  0  0  0  0
    2.9537   -2.3667    0.0001 H   0  0  0  0  0  0  0  0  0  0  0  0
    4.0891   -0.1347   -0.0001 H   0  0  0  0  0  0  0  0  0  0  0  0
    1.1149    3.0832    0.0005 H   0  0  0  0  0  0  0  0  0  0  0  0
   -0.3043    2.4270    0.8836 H   0  0  0  0  0  0  0  0  0  0  0  0
   -0.3030    2.4274   -0.8848 H   0  0  0  0  0  0  0  0  0  0  0  0
  1  2  1  0  0  0  0
  1 15  1  0  0  0  0
  1 16  1  0  0  0  0
  2  7  1  0  0  0  0
  3  2  2  0  0  0  0
  3  4  1  0  0  0  0
  4  5  2  0  0  0  0
  5  6  1  0  0  0  0
  5 13  1  0  0  0  0
  6 12  1  0  0  0  0
  7  6  2  0  0  0  0
  7  8  1  0  0  0  0
  8  9  1  0  0  0  0
  8 11  1  0  0  0  0
 10  8  1  0  0  0  0
 14  4  1  0  0  0  0
 17  1  1  0  0  0  0
M  END
$$$$
