-34.20554357
 OpenBabel09032121183D

 17 17  0  0  0  0  0  0  0  0999 V2000
    0.2927    2.2675   -0.0002 C   0  0  0  0  0  0  0  0  0  0  0  0
    0.9952    0.9731    0.0001 C   0  0  0  0  0  0  0  0  0  0  0  0
    2.3149    0.9086    0.0001 N   0  0  0  0  0  0  0  0  0  0  0  0
    2.9880   -0.2199    0.0001 C   0  0  0  0  0  0  0  0  0  0  0  0
    2.3725   -1.4589   -0.0000 C   0  0  0  0  0  0  0  0  0  0  0  0
    0.9768   -1.4524   -0.0001 C   0  0  0  0  0  0  0  0  0  0  0  0
    0.3338   -0.2489    0.0000 C   0  0  0  0  0  0  0  0  0  0  0  0
   -1.5423   -0.1808    0.0000 S   0  0  0  0  0  0  0  0  0  0  0  0
   -1.8548   -1.5843    0.0003 O   0  0  0  0  0  1  0  0  0  0  0  0
   -1.7703    0.5374   -1.2289 O   0  0  0  0  0  1  0  0  0  0  0  0
   -1.7703    0.5380    1.2286 O   0  0  0  0  0  1  0  0  0  0  0  0
    0.4051   -2.3676   -0.0002 H   0  0  0  0  0  0  0  0  0  0  0  0
    2.9365   -2.3773   -0.0001 H   0  0  0  0  0  0  0  0  0  0  0  0
    4.0652   -0.1194    0.0001 H   0  0  0  0  0  0  0  0  0  0  0  0
    1.0006    3.0910    0.0001 H   0  0  0  0  0  0  0  0  0  0  0  0
   -0.3596    2.3183    0.8715 H   0  0  0  0  0  0  0  0  0  0  0  0
   -0.3589    2.3184   -0.8723 H   0  0  0  0  0  0  0  0  0  0  0  0
  1  2  1  0  0  0  0
  1 15  1  0  0  0  0
  1 16  1  0  0  0  0
  2  3  1  0  0  0  0
  4  3  2  0  0  0  0
  4 14  1  0  0  0  0
  5  4  1  0  0  0  0
  6  5  2  0  0  0  0
  6  7  1  0  0  0  0
  7  8  1  0  0  0  0
  7  2  2  0  0  0  0
  8  9  1  0  0  0  0
  8 11  1  0  0  0  0
 10  8  1  0  0  0  0
 12  6  1  0  0  0  0
 13  5  1  0  0  0  0
 17  1  1  0  0  0  0
M  END
$$$$
