[029939062_dft.out: Geometry 16]
 OpenBabel09282115273D

 18 18  0  0  0  0  0  0  0  0999 V2000
    3.5240    1.6324   -0.0133 C   0  0  0  0  0  0  0  0  0  0  0  0
    2.4267    0.6002    0.0091 C   0  0  0  0  0  0  0  0  0  0  0  0
    2.7156   -0.7703    0.0048 C   0  0  0  0  0  0  0  0  0  0  0  0
    1.7110   -1.7339   -0.0036 C   0  0  0  0  0  0  0  0  0  0  0  0
    0.3842   -1.3323   -0.0067 C   0  0  0  0  0  0  0  0  0  0  0  0
    0.0676    0.0278    0.0009 C   0  0  0  0  0  0  0  0  0  0  0  0
    1.0841    0.9828    0.0095 C   0  0  0  0  0  0  0  0  0  0  0  0
    0.7992    2.0378    0.0177 H   0  0  0  0  0  0  0  0  0  0  0  0
   -1.6123    0.5645    0.0041 S   0  0  0  0  0  0  0  0  0  0  0  0
   -2.3172   -0.1267    1.1315 O   0  0  0  0  0  1  0  0  0  0  0  0
   -2.3177   -0.1137   -1.1293 O   0  0  0  0  0  1  0  0  0  0  0  0
   -1.6231    2.0068    0.0133 O   0  0  0  0  0  1  0  0  0  0  0  0
   -0.5770   -2.2421   -0.0131 F   0  0  0  0  0  0  0  0  0  0  0  0
    1.9381   -2.8015   -0.0054 H   0  0  0  0  0  0  0  0  0  0  0  0
    3.7592   -1.0969    0.0099 H   0  0  0  0  0  0  0  0  0  0  0  0
    4.4632    1.2268    0.3877 H   0  0  0  0  0  0  0  0  0  0  0  0
    3.2540    2.5178    0.5794 H   0  0  0  0  0  0  0  0  0  0  0  0
    3.7214    1.9716   -1.0425 H   0  0  0  0  0  0  0  0  0  0  0  0
  1  2  1  0  0  0  0
  1 16  1  0  0  0  0
  1 17  1  0  0  0  0
  2  7  1  0  0  0  0
  3  2  2  0  0  0  0
  3 15  1  0  0  0  0
  4  3  1  0  0  0  0
  5  4  2  0  0  0  0
  5  6  1  0  0  0  0
  6  9  1  0  0  0  0
  6  7  2  0  0  0  0
  7  8  1  0  0  0  0
  9 12  1  0  0  0  0
  9 10  1  0  0  0  0
 11  9  1  0  0  0  0
 13  5  1  0  0  0  0
 14  4  1  0  0  0  0
 18  1  1  0  0  0  0
M  END
$$$$
