16
[051538824_dft.out: Geometry 21]
C     -2.6883660000   -0.8564550000   -0.0054140000
C     -1.7141500000   -1.8341990000   -0.0101050000
N     -0.4238980000   -1.4726620000   -0.0086990000
C     -0.0993770000   -0.2564000000   -0.0025740000
C     -0.9428590000    0.8377280000    0.0025120000
C     -2.3179970000    0.5155640000    0.0009050000
N     -3.2582960000    1.4894320000    0.0030660000
H     -4.2413120000    1.2650400000    0.0175760000
H     -2.9926680000    2.4625740000    0.0216950000
H     -0.5604590000    1.8583270000    0.0074780000
S      1.9461430000    0.1994080000   -0.0006450000
O      2.2915010000   -0.4402030000   -1.2585310000
O      1.8337190000    1.6507770000    0.0150830000
O      2.2970770000   -0.4671510000    1.2414690000
H     -1.9541050000   -2.8999230000   -0.0150660000
H     -3.7422540000   -1.1426570000   -0.0069490000
