-34.47012878
 OpenBabel09032121323D

 16 16  0  0  0  0  0  0  0  0999 V2000
   -2.6446   -0.8509   -0.0009 C   0  0  0  0  0  0  0  0  0  0  0  0
   -1.6589   -1.8138    0.0012 C   0  0  0  0  0  0  0  0  0  0  0  0
   -0.3819   -1.4558    0.0055 N   0  0  0  0  0  0  0  0  0  0  0  0
   -0.0631   -0.2163    0.0094 C   0  0  0  0  0  0  0  0  0  0  0  0
   -0.9193    0.8456    0.0068 C   0  0  0  0  0  0  0  0  0  0  0  0
   -2.2924    0.5131    0.0019 C   0  0  0  0  0  0  0  0  0  0  0  0
   -3.2256    1.4848    0.0011 N   0  0  0  0  0  0  0  0  0  0  0  0
   -4.2036    1.2595   -0.0078 H   0  0  0  0  0  0  0  0  0  0  0  0
   -2.9473    2.4494   -0.0011 H   0  0  0  0  0  0  0  0  0  0  0  0
   -0.5563    1.8583    0.0103 H   0  0  0  0  0  0  0  0  0  0  0  0
    1.7920    0.1727   -0.0014 S   0  0  0  0  0  0  0  0  0  0  0  0
    2.1274   -0.4219   -1.2688 O   0  0  0  0  0  1  0  0  0  0  0  0
    1.7806    1.6114    0.0535 O   0  0  0  0  0  1  0  0  0  0  0  0
    2.1842   -0.5162    1.1988 O   0  0  0  0  0  1  0  0  0  0  0  0
   -1.8746   -2.8711   -0.0013 H   0  0  0  0  0  0  0  0  0  0  0  0
   -3.6839   -1.1396   -0.0054 H   0  0  0  0  0  0  0  0  0  0  0  0
  1  2  2  0  0  0  0
  1  6  1  0  0  0  0
  2  3  1  0  0  0  0
  3  4  2  0  0  0  0
  5  4  1  0  0  0  0
  5 10  1  0  0  0  0
  6  5  2  0  0  0  0
  7  6  1  0  0  0  0
  8  7  1  0  0  0  0
  9  7  1  0  0  0  0
 11  4  1  0  0  0  0
 11 13  1  0  0  0  0
 11 14  1  0  0  0  0
 12 11  1  0  0  0  0
 15  2  1  0  0  0  0
 16  1  1  0  0  0  0
M  END
$$$$
