[063041359_dft.out: Geometry 12]
 OpenBabel09282115313D

 21 21  0  0  0  0  0  0  0  0999 V2000
   -2.3243   -0.2690   -0.9145 C   0  0  0  0  0  0  0  0  0  0  0  0
   -2.4141   -0.1418    0.4363 C   0  0  0  0  0  0  0  0  0  0  0  0
   -1.2935   -0.6040    1.0286 O   0  0  0  0  0  0  0  0  0  0  0  0
   -0.4612   -1.0358    0.0507 C   0  0  0  0  0  0  0  0  0  0  0  0
   -1.0449   -0.8582   -1.1676 C   0  0  0  0  0  0  0  0  0  0  0  0
   -0.6030   -1.1104   -2.1290 H   0  0  0  0  0  0  0  0  0  0  0  0
    0.8694   -1.5889    0.4677 C   0  0  0  0  0  0  0  0  0  0  0  0
    1.9385   -1.1176   -0.3076 O   0  0  0  0  0  0  0  0  0  0  0  0
    2.4818    0.1270    0.0453 C   0  0  0  0  0  0  0  0  0  0  0  0
    1.6981    1.3520   -0.4226 C   0  0  0  0  0  0  0  0  0  0  0  0
    0.4992    1.7343    0.4138 C   0  0  0  0  0  0  0  0  0  0  0  0
   -0.4534    2.3370   -0.0006 O   0  0  0  0  0  0  0  0  0  0  0  0
    0.5695    1.4568    1.4999 H   0  0  0  0  0  0  0  0  0  0  0  0
    2.3781    2.2231   -0.3688 H   0  0  0  0  0  0  0  0  0  0  0  0
    1.3867    1.2577   -1.4736 H   0  0  0  0  0  0  0  0  0  0  0  0
    3.4806    0.1505   -0.4138 H   0  0  0  0  0  0  0  0  0  0  0  0
    2.6324    0.1798    1.1443 H   0  0  0  0  0  0  0  0  0  0  0  0
    0.8754   -2.6846    0.3543 H   0  0  0  0  0  0  0  0  0  0  0  0
    1.0155   -1.3707    1.5437 H   0  0  0  0  0  0  0  0  0  0  0  0
   -3.1762    0.2589    1.0990 H   0  0  0  0  0  0  0  0  0  0  0  0
   -3.0722    0.0344   -1.6435 H   0  0  0  0  0  0  0  0  0  0  0  0
  1  2  2  0  0  0  0
  2  3  1  0  0  0  0
  2 20  1  0  0  0  0
  4  7  1  0  0  0  0
  4  3  1  0  0  0  0
  5  1  1  0  0  0  0
  5  4  2  0  0  0  0
  6  5  1  0  0  0  0
  7 19  1  0  0  0  0
  8  9  1  0  0  0  0
  8  7  1  0  0  0  0
  9 17  1  0  0  0  0
 10 14  1  0  0  0  0
 10  9  1  0  0  0  0
 10 11  1  0  0  0  0
 11 13  1  0  0  0  0
 12 11  2  0  0  0  0
 15 10  1  0  0  0  0
 16  9  1  0  0  0  0
 18  7  1  0  0  0  0
 21  1  1  0  0  0  0
M  END
$$$$
