46
[000202910_dft.out: Geometry 19]
C      3.9757150000    0.5290770000   -1.9204920000
C      4.5937860000    0.9134410000   -0.5794390000
C      3.7384210000    0.5404290000    0.6268920000
N      2.4616480000    1.2399140000    0.6282300000
H      2.6208040000    2.2460750000    0.6546210000
C      1.5478600000    0.8445990000    1.6986420000
H      1.6706810000   -0.2386760000    1.8470080000
C      0.0773310000    1.1395680000    1.3641310000
C     -0.2059730000    2.6404270000    1.2973810000
H     -1.2810980000    2.8374960000    1.1810360000
H      0.2989980000    3.1017190000    0.4359350000
H      0.1336560000    3.1421470000    2.2172030000
H     -0.5102530000    0.7214040000    2.1979600000
C     -0.3603760000    0.4212230000    0.0468930000
C     -0.0520640000   -1.0910940000    0.1073920000
C      0.5716770000   -1.7056820000   -0.9812820000
C      0.8664870000   -3.0687230000   -0.9641200000
C      0.5413150000   -3.8447490000    0.1452440000
C     -0.0860330000   -3.2442580000    1.2360330000
C     -0.3798160000   -1.8831070000    1.2151150000
H     -0.8648520000   -1.4387270000    2.0874760000
H     -0.3488520000   -3.8398590000    2.1142490000
H      0.7739620000   -4.9126070000    0.1614030000
H      1.3531830000   -3.5269800000   -1.8293840000
H      0.8227640000   -1.0944530000   -1.8491690000
C     -1.8617060000    0.6017550000   -0.2180700000
C     -2.8264000000    0.3420390000    0.7619350000
C     -4.1830630000    0.5026460000    0.4914020000
C     -4.6016840000    0.9230620000   -0.7699340000
C     -3.6493480000    1.1826330000   -1.7519920000
C     -2.2914450000    1.0265720000   -1.4775640000
H     -1.5401760000    1.2396710000   -2.2382010000
H     -3.9643350000    1.5145030000   -2.7448400000
H     -5.6659840000    1.0499570000   -0.9840330000
H     -4.9181820000    0.2990320000    1.2745570000
H     -2.5271820000    0.0138170000    1.7601550000
O      0.3276260000    1.0053730000   -1.0300440000
H      1.2573790000    1.0822710000   -0.7203490000
H      1.8057760000    1.3212000000    2.6662720000
H      4.3103640000    0.7219290000    1.5608050000
H      3.5199570000   -0.5415240000    0.5983900000
H      5.5736880000    0.4213020000   -0.4647530000
H      4.8039750000    1.9984380000   -0.5565520000
H      3.0312050000    1.0610480000   -2.1063420000
H      4.6554290000    0.7619900000   -2.7536800000
H      3.7558360000   -0.5499190000   -1.9575240000
