40
[022277907_dft.out: Geometry 12]
C     -2.9067520000   -1.3265500000   -1.1722460000
H     -2.6523510000   -1.7700370000   -2.1498040000
H     -3.9800730000   -1.5013620000   -0.9967290000
H     -2.7524210000   -0.2406840000   -1.2465010000
C     -2.0632120000   -1.9529640000   -0.0588340000
C     -2.3537960000   -3.4513520000    0.0523380000
H     -2.0349440000   -3.9831250000   -0.8602560000
H     -1.8223620000   -3.9034860000    0.9046500000
H     -3.4299310000   -3.6423610000    0.1880800000
H     -2.3799710000   -1.4866840000    0.8904150000
C     -0.5492880000   -1.7055840000   -0.2509990000
H     -0.0007440000   -2.6176860000    0.0379320000
H     -0.3460940000   -1.5595050000   -1.3258780000
C      0.0700040000   -0.5286530000    0.5484710000
C      1.5482670000   -0.3089390000    0.1786670000
C      2.2955490000   -1.2130230000   -0.5809270000
C      3.6465020000   -0.9817470000   -0.8524600000
C      4.2783560000    0.1573240000   -0.3665070000
C      3.5461800000    1.0683060000    0.3962660000
C      2.2018360000    0.8352560000    0.6612180000
H      1.6362590000    1.5675130000    1.2446590000
H      4.0253510000    1.9710720000    0.7839100000
H      5.3342070000    0.3395310000   -0.5820970000
H      4.2053980000   -1.7044440000   -1.4529640000
H      1.8329040000   -2.1176910000   -0.9778830000
C     -0.7139510000    0.7525850000    0.2342050000
C     -0.5530990000    1.3649650000   -1.0177380000
C     -1.2928860000    2.4871690000   -1.3720410000
C     -2.2149320000    3.0312800000   -0.4760850000
C     -2.3787820000    2.4416760000    0.7725030000
C     -1.6326560000    1.3141740000    1.1235730000
H     -1.7829030000    0.8726270000    2.1106290000
H     -3.0927180000    2.8592230000    1.4872660000
H     -2.7974200000    3.9140310000   -0.7512940000
H     -1.1491400000    2.9424450000   -2.3553680000
H      0.1700380000    0.9522590000   -1.7271270000
C      0.0421710000   -0.8850030000    2.0471690000
H     -0.9668730000   -1.1522860000    2.3941590000
H      0.6971560000   -1.7498560000    2.2296930000
H      0.4060210000   -0.0538150000    2.6690350000
