-44.85230415
 OpenBabel09032123033D

 30 31  0  0  1  0  0  0  0  0999 V2000
   -3.4250   -1.6202   -0.1164 C   0  0  0  0  0  0  0  0  0  0  0  0
   -2.9722   -1.0569    1.0630 C   0  0  0  0  0  0  0  0  0  0  0  0
   -1.8601   -0.2316    1.0644 C   0  0  0  0  0  0  0  0  0  0  0  0
   -1.1862    0.0434   -0.1198 C   0  0  0  0  0  0  0  0  0  0  0  0
   -1.6484   -0.5280   -1.2997 C   0  0  0  0  0  0  0  0  0  0  0  0
   -2.7585   -1.3516   -1.2996 C   0  0  0  0  0  0  0  0  0  0  0  0
   -3.1034   -1.7858   -2.2265 H   0  0  0  0  0  0  0  0  0  0  0  0
   -1.1327   -0.3087   -2.2217 H   0  0  0  0  0  0  0  0  0  0  0  0
    0.0560    0.9174   -0.1787 C   0  0  1  0  0  0  0  0  0  0  0  0
    1.2917    0.0576   -0.0037 C   0  0  0  0  0  0  0  0  0  0  0  0
    2.2786    0.3206   -0.8517 N   0  0  0  0  0  0  0  0  0  0  0  0
    3.4103   -0.3538   -0.7493 C   0  0  0  0  0  0  0  0  0  0  0  0
    3.6232   -1.3309    0.2074 C   0  0  0  0  0  0  0  0  0  0  0  0
    2.5927   -1.6103    1.0941 C   0  0  0  0  0  0  0  0  0  0  0  0
    1.4063   -0.9070    0.9926 C   0  0  0  0  0  0  0  0  0  0  0  0
    0.5823   -1.1078    1.6583 H   0  0  0  0  0  0  0  0  0  0  0  0
    2.7136   -2.3691    1.8536 H   0  0  0  0  0  0  0  0  0  0  0  0
    4.5620   -1.8593    0.2564 H   0  0  0  0  0  0  0  0  0  0  0  0
    4.1731   -0.0923   -1.4713 H   0  0  0  0  0  0  0  0  0  0  0  0
    0.0968    1.5781   -1.4267 O   0  0  0  0  0  0  0  0  0  0  0  0
    1.0171    1.5204   -1.7320 H   0  0  0  0  0  0  0  0  0  0  0  0
    0.0814    2.0195    0.9309 C   0  0  0  0  0  0  0  0  0  0  0  0
   -1.0297    2.9369    0.8606 N   0  0  0  0  0  0  0  0  0  0  0  0
   -1.0568    3.3433   -0.0701 H   0  0  0  0  0  0  0  0  0  0  0  0
   -1.9043    2.4377    0.9940 H   0  0  0  0  0  0  0  0  0  0  0  0
    0.1161    1.5646    1.9227 H   0  0  0  0  0  0  0  0  0  0  0  0
    1.0006    2.5960    0.7898 H   0  0  0  0  0  0  0  0  0  0  0  0
   -1.5321    0.1955    2.0005 H   0  0  0  0  0  0  0  0  0  0  0  0
   -3.4865   -1.2578    1.9918 H   0  0  0  0  0  0  0  0  0  0  0  0
   -4.2929   -2.2630   -0.1130 H   0  0  0  0  0  0  0  0  0  0  0  0
  1 30  1  0  0  0  0
  1  2  1  0  0  0  0
  2  3  2  0  0  0  0
  2 29  1  0  0  0  0
  3 28  1  0  0  0  0
  4  3  1  0  0  0  0
  5  6  1  0  0  0  0
  5  4  2  0  0  0  0
  6  1  2  0  0  0  0
  7  6  1  0  0  0  0
  8  5  1  0  0  0  0
  9 20  1  6  0  0  0
  9  4  1  0  0  0  0
  9 10  1  0  0  0  0
  9 22  1  0  0  0  0
 10 15  1  0  0  0  0
 11 12  1  0  0  0  0
 11 10  2  0  0  0  0
 12 13  2  0  0  0  0
 13 18  1  0  0  0  0
 13 14  1  0  0  0  0
 14 17  1  0  0  0  0
 15 14  2  0  0  0  0
 15 16  1  0  0  0  0
 19 12  1  0  0  0  0
 21 20  1  0  0  0  0
 22 26  1  0  0  0  0
 23 22  1  0  0  0  0
 23 25  1  0  0  0  0
 24 23  1  0  0  0  0
 27 22  1  0  0  0  0
M  END
$$$$
