[059200416_dft.out: Geometry 7]
 OpenBabel09282115253D

 30 31  0  0  1  0  0  0  0  0999 V2000
   -3.4787   -1.6276   -0.1128 C   0  0  0  0  0  0  0  0  0  0  0  0
   -2.9829   -1.1147    1.0827 C   0  0  0  0  0  0  0  0  0  0  0  0
   -1.8602   -0.2868    1.0781 C   0  0  0  0  0  0  0  0  0  0  0  0
   -1.2128    0.0375   -0.1195 C   0  0  0  0  0  0  0  0  0  0  0  0
   -1.7275   -0.4740   -1.3147 C   0  0  0  0  0  0  0  0  0  0  0  0
   -2.8470   -1.3015   -1.3122 C   0  0  0  0  0  0  0  0  0  0  0  0
   -3.2329   -1.6923   -2.2572 H   0  0  0  0  0  0  0  0  0  0  0  0
   -1.2370   -0.1983   -2.2492 H   0  0  0  0  0  0  0  0  0  0  0  0
    0.0477    0.9043   -0.1659 C   0  0  1  0  0  0  0  0  0  0  0  0
    1.3049    0.0413    0.0134 C   0  0  0  0  0  0  0  0  0  0  0  0
    2.2911    0.3255   -0.8337 N   0  0  0  0  0  0  0  0  0  0  0  0
    3.4486   -0.3273   -0.7385 C   0  0  0  0  0  0  0  0  0  0  0  0
    3.6831   -1.3023    0.2235 C   0  0  0  0  0  0  0  0  0  0  0  0
    2.6546   -1.6037    1.1160 C   0  0  0  0  0  0  0  0  0  0  0  0
    1.4461   -0.9262    1.0128 C   0  0  0  0  0  0  0  0  0  0  0  0
    0.6168   -1.1557    1.6837 H   0  0  0  0  0  0  0  0  0  0  0  0
    2.7925   -2.3682    1.8849 H   0  0  0  0  0  0  0  0  0  0  0  0
    4.6458   -1.8149    0.2704 H   0  0  0  0  0  0  0  0  0  0  0  0
    4.2227   -0.0573   -1.4646 H   0  0  0  0  0  0  0  0  0  0  0  0
    0.1174    1.5367   -1.4165 O   0  0  0  0  0  0  0  0  0  0  0  0
    1.0497    1.4476   -1.6892 H   0  0  0  0  0  0  0  0  0  0  0  0
    0.0517    2.0161    0.9191 C   0  0  0  0  0  0  0  0  0  0  0  0
   -1.0011    2.9911    0.7690 N   0  0  0  0  0  0  0  0  0  0  0  0
   -0.9920    3.3144   -0.1981 H   0  0  0  0  0  0  0  0  0  0  0  0
   -1.9091    2.5496    0.9055 H   0  0  0  0  0  0  0  0  0  0  0  0
    0.0241    1.5797    1.9311 H   0  0  0  0  0  0  0  0  0  0  0  0
    1.0282    2.5227    0.8343 H   0  0  0  0  0  0  0  0  0  0  0  0
   -1.4962    0.1093    2.0297 H   0  0  0  0  0  0  0  0  0  0  0  0
   -3.4744   -1.3540    2.0290 H   0  0  0  0  0  0  0  0  0  0  0  0
   -4.3601   -2.2741   -0.1110 H   0  0  0  0  0  0  0  0  0  0  0  0
  1 30  1  0  0  0  0
  1  2  1  0  0  0  0
  2 29  1  0  0  0  0
  3  2  2  0  0  0  0
  3 28  1  0  0  0  0
  4  3  1  0  0  0  0
  5  6  1  0  0  0  0
  5  4  2  0  0  0  0
  6  1  2  0  0  0  0
  7  6  1  0  0  0  0
  8  5  1  0  0  0  0
  9 20  1  6  0  0  0
  9  4  1  0  0  0  0
  9 10  1  0  0  0  0
  9 22  1  0  0  0  0
 10 15  1  0  0  0  0
 11 12  1  0  0  0  0
 11 10  2  0  0  0  0
 12 13  2  0  0  0  0
 13 18  1  0  0  0  0
 13 14  1  0  0  0  0
 14 17  1  0  0  0  0
 15 14  2  0  0  0  0
 15 16  1  0  0  0  0
 19 12  1  0  0  0  0
 21 20  1  0  0  0  0
 22 26  1  0  0  0  0
 23 25  1  0  0  0  0
 23 22  1  0  0  0  0
 24 23  1  0  0  0  0
 27 22  1  0  0  0  0
M  END
$$$$
