30
[059200416_dft.out: Geometry 7]
C     -3.4787140000   -1.6276060000   -0.1128100000
C     -2.9828500000   -1.1146740000    1.0826910000
C     -1.8602140000   -0.2867840000    1.0780870000
C     -1.2128120000    0.0374630000   -0.1195390000
C     -1.7274520000   -0.4739600000   -1.3147250000
C     -2.8470430000   -1.3014940000   -1.3121840000
H     -3.2328680000   -1.6923300000   -2.2572350000
H     -1.2370060000   -0.1982850000   -2.2492240000
C      0.0477000000    0.9043370000   -0.1659450000
C      1.3048820000    0.0413110000    0.0133990000
N      2.2911220000    0.3255080000   -0.8336890000
C      3.4486390000   -0.3272900000   -0.7385440000
C      3.6830580000   -1.3023310000    0.2235360000
C      2.6545800000   -1.6036590000    1.1159910000
C      1.4461370000   -0.9261930000    1.0127820000
H      0.6167670000   -1.1557090000    1.6837040000
H      2.7925260000   -2.3681730000    1.8849170000
H      4.6457640000   -1.8148730000    0.2703720000
H      4.2226660000   -0.0573110000   -1.4646390000
O      0.1173980000    1.5366830000   -1.4165160000
H      1.0496780000    1.4476350000   -1.6892430000
C      0.0517140000    2.0160740000    0.9190940000
N     -1.0010940000    2.9910890000    0.7690280000
H     -0.9919900000    3.3143500000   -0.1980510000
H     -1.9090950000    2.5496060000    0.9054550000
H      0.0240840000    1.5796710000    1.9310940000
H      1.0281520000    2.5226700000    0.8343380000
H     -1.4961620000    0.1092690000    2.0297160000
H     -3.4744250000   -1.3540240000    2.0289980000
H     -4.3601410000   -2.2740700000   -0.1109580000
