-44.79147846
 OpenBabel09032123493D

 33 34  0  0  1  0  0  0  0  0999 V2000
    2.2485    2.7509    0.3828 C   0  0  0  0  0  0  0  0  0  0  0  0
    2.9737    1.9958    0.6750 H   0  0  0  0  0  0  0  0  0  0  0  0
    2.4015    2.9885   -0.6660 H   0  0  0  0  0  0  0  0  0  0  0  0
    0.8283    2.2436    0.5977 C   0  0  0  0  0  0  0  0  0  0  0  0
    0.6991    1.9319    1.6354 H   0  0  0  0  0  0  0  0  0  0  0  0
    0.1248    3.0543    0.3933 H   0  0  0  0  0  0  0  0  0  0  0  0
    0.4888    1.0569   -0.3240 C   0  0  2  0  0  0  0  0  0  0  0  0
    0.6018    1.5133   -1.7102 N   0  0  0  0  0  0  0  0  0  0  0  0
   -0.0171    2.3032   -1.8600 H   0  0  0  0  0  0  0  0  0  0  0  0
    0.3201    0.7725   -2.3435 H   0  0  0  0  0  0  0  0  0  0  0  0
   -0.9127    0.5332   -0.0678 C   0  0  0  0  0  0  0  0  0  0  0  0
   -1.8924    1.1320    0.6553 C   0  0  0  0  0  0  0  0  0  0  0  0
   -3.3710    0.2432    0.6278 S   0  0  0  0  0  0  0  0  0  0  0  0
   -2.6631   -0.9731   -0.3902 C   0  0  0  0  0  0  0  0  0  0  0  0
   -1.3697   -0.6755   -0.6679 C   0  0  0  0  0  0  0  0  0  0  0  0
   -0.7374   -1.3025   -1.2735 H   0  0  0  0  0  0  0  0  0  0  0  0
   -3.4624   -2.1446   -0.8363 C   0  0  0  0  0  0  0  0  0  0  0  0
   -4.3301   -1.8226   -1.4120 H   0  0  0  0  0  0  0  0  0  0  0  0
   -2.8509   -2.7966   -1.4558 H   0  0  0  0  0  0  0  0  0  0  0  0
   -3.8238   -2.7119    0.0210 H   0  0  0  0  0  0  0  0  0  0  0  0
   -1.8583    2.0415    1.2200 H   0  0  0  0  0  0  0  0  0  0  0  0
    1.4756   -0.0685   -0.0678 C   0  0  0  0  0  0  0  0  0  0  0  0
    2.5288   -0.3192   -0.9359 C   0  0  0  0  0  0  0  0  0  0  0  0
    3.4250   -1.3410   -0.6742 C   0  0  0  0  0  0  0  0  0  0  0  0
    3.2815   -2.1214    0.4595 C   0  0  0  0  0  0  0  0  0  0  0  0
    2.2375   -1.8715    1.3344 C   0  0  0  0  0  0  0  0  0  0  0  0
    1.3413   -0.8518    1.0725 C   0  0  0  0  0  0  0  0  0  0  0  0
    0.5262   -0.6642    1.7572 H   0  0  0  0  0  0  0  0  0  0  0  0
    2.1204   -2.4738    2.2237 H   0  0  0  0  0  0  0  0  0  0  0  0
    3.9805   -2.9195    0.6630 H   0  0  0  0  0  0  0  0  0  0  0  0
    4.2404   -1.5265   -1.3585 H   0  0  0  0  0  0  0  0  0  0  0  0
    2.6445    0.2982   -1.8127 H   0  0  0  0  0  0  0  0  0  0  0  0
    2.4197    3.6456    0.9770 H   0  0  0  0  0  0  0  0  0  0  0  0
  1  4  1  0  0  0  0
  1  2  1  0  0  0  0
  1 33  1  0  0  0  0
  3  1  1  0  0  0  0
  4  5  1  0  0  0  0
  6  4  1  0  0  0  0
  7  8  1  6  0  0  0
  7 22  1  0  0  0  0
  7 11  1  0  0  0  0
  7  4  1  0  0  0  0
  9  8  1  0  0  0  0
 10  8  1  0  0  0  0
 11 12  2  0  0  0  0
 12 21  1  0  0  0  0
 13 12  1  0  0  0  0
 14 13  1  0  0  0  0
 15 14  2  0  0  0  0
 15 11  1  0  0  0  0
 16 15  1  0  0  0  0
 17 14  1  0  0  0  0
 17 20  1  0  0  0  0
 18 17  1  0  0  0  0
 19 17  1  0  0  0  0
 22 27  1  0  0  0  0
 23 24  1  0  0  0  0
 23 22  2  0  0  0  0
 24 25  2  0  0  0  0
 25 30  1  0  0  0  0
 25 26  1  0  0  0  0
 26 29  1  0  0  0  0
 27 26  2  0  0  0  0
 27 28  1  0  0  0  0
 31 24  1  0  0  0  0
 32 23  1  0  0  0  0
M  END
$$$$
