-42.93174287
 OpenBabel09032116323D

 23 24  0  0  0  0  0  0  0  0999 V2000
    3.3521    0.9358    0.7194 C   0  0  0  0  0  0  0  0  0  0  0  0
    1.9694    0.9653    0.7565 C   0  0  0  0  0  0  0  0  0  0  0  0
    1.2526    0.0206    0.0247 C   0  0  0  0  0  0  0  0  0  0  0  0
    1.9862   -0.9108   -0.7131 C   0  0  0  0  0  0  0  0  0  0  0  0
    3.3033   -0.9408   -0.7465 N   0  0  0  0  0  0  0  0  0  0  0  0
    3.9717   -0.0407   -0.0457 C   0  0  0  0  0  0  0  0  0  0  0  0
    5.0500   -0.1094   -0.1041 H   0  0  0  0  0  0  0  0  0  0  0  0
    1.4875   -1.6604   -1.3129 H   0  0  0  0  0  0  0  0  0  0  0  0
   -0.2163    0.0089    0.0174 C   0  0  0  0  0  0  0  0  0  0  0  0
   -0.9731    1.1690   -0.1509 C   0  0  0  0  0  0  0  0  0  0  0  0
   -2.3501    1.1813   -0.1793 C   0  0  0  0  0  0  0  0  0  0  0  0
   -3.0591   -0.0115   -0.0213 C   0  0  0  0  0  0  0  0  0  0  0  0
   -2.3370   -1.1938    0.1553 C   0  0  0  0  0  0  0  0  0  0  0  0
   -0.9600   -1.1622    0.1669 C   0  0  0  0  0  0  0  0  0  0  0  0
   -0.3121   -2.3288    0.3588 F   0  0  0  0  0  0  0  0  0  0  0  0
   -2.8441   -2.1362    0.2884 H   0  0  0  0  0  0  0  0  0  0  0  0
   -4.4260   -0.0126    0.0235 N   0  0  0  0  0  0  0  0  0  0  0  0
   -4.8976   -0.8933   -0.0896 H   0  0  0  0  0  0  0  0  0  0  0  0
   -4.9073    0.7969   -0.3282 H   0  0  0  0  0  0  0  0  0  0  0  0
   -2.8669    2.1169   -0.3231 H   0  0  0  0  0  0  0  0  0  0  0  0
   -0.3363    2.3456   -0.3275 F   0  0  0  0  0  0  0  0  0  0  0  0
    1.4511    1.7031    1.3514 H   0  0  0  0  0  0  0  0  0  0  0  0
    3.9352    1.6527    1.2764 H   0  0  0  0  0  0  0  0  0  0  0  0
  1  2  1  0  0  0  0
  1 23  1  0  0  0  0
  2 22  1  0  0  0  0
  3  2  2  0  0  0  0
  4  3  1  0  0  0  0
  5  4  2  0  0  0  0
  5  6  1  0  0  0  0
  6  1  2  0  0  0  0
  7  6  1  0  0  0  0
  8  4  1  0  0  0  0
  9  3  1  0  0  0  0
  9 14  1  0  0  0  0
 10  9  2  0  0  0  0
 11 10  1  0  0  0  0
 11 12  2  0  0  0  0
 12 17  1  0  0  0  0
 12 13  1  0  0  0  0
 13 14  2  0  0  0  0
 13 16  1  0  0  0  0
 14 15  1  0  0  0  0
 18 17  1  0  0  0  0
 19 17  1  0  0  0  0
 20 11  1  0  0  0  0
 21 10  1  0  0  0  0
M  END
$$$$
