23
[010242074_dft.out: Geometry 7]
C      3.3786770000    0.9143940000    0.7429700000
C      1.9891840000    0.9498390000    0.7785390000
C      1.2634820000    0.0296660000    0.0159030000
C      1.9991820000   -0.8843470000   -0.7523940000
N      3.3256820000   -0.9269310000   -0.7885310000
C      3.9991350000   -0.0452770000   -0.0539730000
H      5.0928040000   -0.1026690000   -0.1019870000
H      1.4696500000   -1.6179160000   -1.3706360000
C     -0.2195440000    0.0147840000    0.0103620000
C     -0.9866500000    1.1694080000   -0.1798880000
C     -2.3706760000    1.1868390000   -0.1954030000
C     -3.0797030000   -0.0106690000   -0.0060960000
C     -2.3513450000   -1.1946460000    0.1930500000
C     -0.9674770000   -1.1535290000    0.1947970000
F     -0.3155380000   -2.3003630000    0.3943510000
H     -2.8468350000   -2.1532350000    0.3560470000
N     -4.4537760000   -0.0170700000    0.0237500000
H     -4.9233910000   -0.9037300000   -0.0925030000
H     -4.9378400000    0.7741160000   -0.3762010000
H     -2.8813990000    2.1380100000   -0.3546650000
F     -0.3512530000    2.3288980000   -0.3674840000
H      1.4662960000    1.6835210000    1.3963920000
H      3.9745350000    1.6165060000    1.3301010000
