-44.87604998
 OpenBabel09032120543D

 23 24  0  0  0  0  0  0  0  0999 V2000
   -4.2828   -0.3721    0.0197 C   0  0  0  0  0  0  0  0  0  0  0  0
   -2.9102    0.0451   -0.0052 N   0  0  0  0  0  0  0  0  0  0  0  0
   -1.8052   -0.7157    0.0013 C   0  0  0  0  0  0  0  0  0  0  0  0
   -0.6756    0.0873   -0.0019 C   0  0  0  0  0  0  0  0  0  0  0  0
   -1.2534    1.3875   -0.0059 C   0  0  0  0  0  0  0  0  0  0  0  0
   -2.5712    1.3440   -0.0065 N   0  0  0  0  0  0  0  0  0  0  0  0
   -0.6055    2.5593   -0.0112 O   0  0  0  0  0  0  0  0  0  0  0  0
   -1.2680    3.2630   -0.0151 H   0  0  0  0  0  0  0  0  0  0  0  0
    0.7276   -0.2929   -0.0024 C   0  0  0  0  0  0  0  0  0  0  0  0
    1.7161    0.6905    0.0055 C   0  0  0  0  0  0  0  0  0  0  0  0
    3.0417    0.3094    0.0057 C   0  0  0  0  0  0  0  0  0  0  0  0
    3.4346   -1.0164   -0.0018 C   0  0  0  0  0  0  0  0  0  0  0  0
    2.4474   -1.9871   -0.0098 C   0  0  0  0  0  0  0  0  0  0  0  0
    1.1109   -1.6355   -0.0100 C   0  0  0  0  0  0  0  0  0  0  0  0
    0.3639   -2.4123   -0.0165 H   0  0  0  0  0  0  0  0  0  0  0  0
    2.7255   -3.0302   -0.0158 H   0  0  0  0  0  0  0  0  0  0  0  0
    4.4824   -1.2706   -0.0013 H   0  0  0  0  0  0  0  0  0  0  0  0
    3.9922    1.2708    0.0135 F   0  0  0  0  0  0  0  0  0  0  0  0
    1.4580    1.7358    0.0113 H   0  0  0  0  0  0  0  0  0  0  0  0
   -1.9363   -2.0426    0.0025 F   0  0  0  0  0  0  0  0  0  0  0  0
   -4.7015   -0.2428    1.0200 H   0  0  0  0  0  0  0  0  0  0  0  0
   -4.3415   -1.4205   -0.2664 H   0  0  0  0  0  0  0  0  0  0  0  0
   -4.8500    0.2390   -0.6811 H   0  0  0  0  0  0  0  0  0  0  0  0
  1 21  1  0  0  0  0
  2  3  1  0  0  0  0
  2  1  1  0  0  0  0
  3 20  1  0  0  0  0
  4  3  2  0  0  0  0
  5  4  1  0  0  0  0
  6  5  2  0  0  0  0
  6  2  1  0  0  0  0
  7  5  1  0  0  0  0
  8  7  1  0  0  0  0
  9  4  1  0  0  0  0
  9 10  1  0  0  0  0
 10 11  2  0  0  0  0
 10 19  1  0  0  0  0
 11 18  1  0  0  0  0
 12 17  1  0  0  0  0
 12 11  1  0  0  0  0
 13 12  2  0  0  0  0
 14 13  1  0  0  0  0
 14  9  2  0  0  0  0
 15 14  1  0  0  0  0
 16 13  1  0  0  0  0
 22  1  1  0  0  0  0
 23  1  1  0  0  0  0
M  END
$$$$
