23
[023237862_dft.out: Geometry 14]
C     -4.3005620000   -0.3705190000   -0.0146230000
N     -2.9226160000    0.0534190000    0.0065950000
C     -1.8160100000   -0.7033890000   -0.0211460000
C     -0.6860670000    0.0979610000    0.0105980000
C     -1.2850600000    1.3922220000    0.0583370000
N     -2.5986690000    1.3637590000    0.0560000000
O     -0.6196510000    2.5538570000    0.1035370000
H     -1.2763580000    3.2610030000    0.1340560000
C      0.7331530000   -0.2897760000   -0.0012400000
C      1.7343590000    0.6917950000   -0.0281100000
C      3.0670470000    0.3079030000   -0.0395440000
C      3.4596650000   -1.0232160000   -0.0258630000
C      2.4626020000   -1.9957730000    0.0008050000
C      1.1169520000   -1.6417660000    0.0135590000
H      0.3582660000   -2.4243510000    0.0370350000
H      2.7419470000   -3.0521200000    0.0127820000
H      4.5210170000   -1.2768600000   -0.0355660000
F      4.0055960000    1.2596880000   -0.0657910000
H      1.4851550000    1.7525620000   -0.0394560000
F     -1.9283830000   -2.0160670000   -0.0728010000
H     -4.8149040000   -0.0231820000    0.8921610000
H     -4.3314780000   -1.4657990000   -0.0543530000
H     -4.8069010000    0.0416500000   -0.8983730000
