[059627639_dft.out: Geometry 6]
 OpenBabel09282115273D

 40 41  0  0  0  0  0  0  0  0999 V2000
   -5.0872   -1.2668    0.3527 C   0  0  0  0  0  0  0  0  0  0  0  0
   -6.1817   -1.2880    0.2306 H   0  0  0  0  0  0  0  0  0  0  0  0
   -4.6730   -2.1719   -0.1160 H   0  0  0  0  0  0  0  0  0  0  0  0
   -4.8722   -1.3232    1.4322 H   0  0  0  0  0  0  0  0  0  0  0  0
   -4.4921    0.0013   -0.2687 C   0  0  0  0  0  0  0  0  0  0  0  0
   -2.9740    0.0003   -0.2010 C   0  0  0  0  0  0  0  0  0  0  0  0
   -2.2022    0.0068   -1.3657 C   0  0  0  0  0  0  0  0  0  0  0  0
   -0.8093    0.0064   -1.3109 C   0  0  0  0  0  0  0  0  0  0  0  0
   -0.1406   -0.0007   -0.0838 C   0  0  0  0  0  0  0  0  0  0  0  0
   -0.9105   -0.0072    1.0854 C   0  0  0  0  0  0  0  0  0  0  0  0
   -2.3008   -0.0067    1.0267 C   0  0  0  0  0  0  0  0  0  0  0  0
   -2.8709   -0.0117    1.9609 H   0  0  0  0  0  0  0  0  0  0  0  0
   -0.4057   -0.0129    2.0560 H   0  0  0  0  0  0  0  0  0  0  0  0
    1.3539   -0.0009   -0.0221 C   0  0  0  0  0  0  0  0  0  0  0  0
    2.0550    1.2178    0.0130 C   0  0  0  0  0  0  0  0  0  0  0  0
    3.4500    1.1964    0.0716 C   0  0  0  0  0  0  0  0  0  0  0  0
    4.1683   -0.0008    0.0941 C   0  0  0  0  0  0  0  0  0  0  0  0
    3.4509   -1.1974    0.0616 C   0  0  0  0  0  0  0  0  0  0  0  0
    2.0551   -1.2189    0.0032 C   0  0  0  0  0  0  0  0  0  0  0  0
    1.3145   -2.5325   -0.0299 C   0  0  0  0  0  0  0  0  0  0  0  0
    2.0117   -3.3818   -0.0091 H   0  0  0  0  0  0  0  0  0  0  0  0
    0.6304   -2.6283    0.8272 H   0  0  0  0  0  0  0  0  0  0  0  0
    0.6944   -2.6187   -0.9352 H   0  0  0  0  0  0  0  0  0  0  0  0
    3.9940   -2.1478    0.0841 H   0  0  0  0  0  0  0  0  0  0  0  0
    5.6755    0.0023    0.1240 C   0  0  0  0  0  0  0  0  0  0  0  0
    6.0719   -0.9266    0.5589 H   0  0  0  0  0  0  0  0  0  0  0  0
    6.0886    0.0923   -0.8940 H   0  0  0  0  0  0  0  0  0  0  0  0
    6.0645    0.8478    0.7102 H   0  0  0  0  0  0  0  0  0  0  0  0
    3.9926    2.1470    0.1021 H   0  0  0  0  0  0  0  0  0  0  0  0
    1.3134    2.5311   -0.0105 C   0  0  0  0  0  0  0  0  0  0  0  0
    2.0097    3.3806    0.0278 H   0  0  0  0  0  0  0  0  0  0  0  0
    0.7025    2.6285   -0.9210 H   0  0  0  0  0  0  0  0  0  0  0  0
    0.6206    2.6154    0.8407 H   0  0  0  0  0  0  0  0  0  0  0  0
   -0.2262    0.0115   -2.2366 H   0  0  0  0  0  0  0  0  0  0  0  0
   -2.7020    0.0125   -2.3393 H   0  0  0  0  0  0  0  0  0  0  0  0
   -5.0852    1.2676    0.3581 C   0  0  0  0  0  0  0  0  0  0  0  0
   -4.6709    2.1740   -0.1079 H   0  0  0  0  0  0  0  0  0  0  0  0
   -4.8681    1.3198    1.4374 H   0  0  0  0  0  0  0  0  0  0  0  0
   -6.1798    1.2903    0.2379 H   0  0  0  0  0  0  0  0  0  0  0  0
   -4.7615    0.0037   -1.3391 H   0  0  0  0  0  0  0  0  0  0  0  0
  1  4  1  0  0  0  0
  2  1  1  0  0  0  0
  3  1  1  0  0  0  0
  5  6  1  0  0  0  0
  5  1  1  0  0  0  0
  5 36  1  0  0  0  0
  6 11  1  0  0  0  0
  7  8  1  0  0  0  0
  7  6  2  0  0  0  0
  8  9  2  0  0  0  0
  9 14  1  0  0  0  0
  9 10  1  0  0  0  0
 10 13  1  0  0  0  0
 11 10  2  0  0  0  0
 11 12  1  0  0  0  0
 14 19  2  0  0  0  0
 14 15  1  0  0  0  0
 15 16  2  0  0  0  0
 16 17  1  0  0  0  0
 16 29  1  0  0  0  0
 17 25  1  0  0  0  0
 18 24  1  0  0  0  0
 18 17  2  0  0  0  0
 19 18  1  0  0  0  0
 20 21  1  0  0  0  0
 20 19  1  0  0  0  0
 20 22  1  0  0  0  0
 23 20  1  0  0  0  0
 25 26  1  0  0  0  0
 25 28  1  0  0  0  0
 27 25  1  0  0  0  0
 30 15  1  0  0  0  0
 30 31  1  0  0  0  0
 30 33  1  0  0  0  0
 32 30  1  0  0  0  0
 34  8  1  0  0  0  0
 35  7  1  0  0  0  0
 36 38  1  0  0  0  0
 37 36  1  0  0  0  0
 39 36  1  0  0  0  0
 40  5  1  0  0  0  0
M  END
$$$$
