21
[018473915_dft.out: Geometry 7]
C     -3.3634520000   -2.1908910000    0.0017320000
H     -3.8770480000   -1.7959270000   -0.8955460000
O     -2.0028760000   -1.8704480000    0.0021820000
C     -1.7613910000   -0.4971400000   -0.0008430000
C     -0.2698200000   -0.2442940000   -0.0006500000
C      0.5823830000   -1.3497980000   -0.0006070000
C      1.9589470000   -1.1794750000   -0.0006160000
C      2.5511290000    0.0778830000   -0.0005040000
C      1.7200600000    1.1860580000   -0.0002810000
C      0.3344000000    1.0270980000   -0.0004280000
N     -0.4630370000    2.2636370000   -0.0003390000
O      0.1273620000    3.3189450000    0.0054030000
O     -1.6721810000    2.1595050000   -0.0062030000
H      2.1239160000    2.1981890000    0.0000880000
H      3.6379060000    0.1717760000   -0.0005360000
F      2.7365200000   -2.2567290000   -0.0007080000
H      0.1547470000   -2.3516790000   -0.0004780000
H     -2.2175940000   -0.0104730000   -0.8837550000
H     -2.2188690000   -0.0064850000    0.8791940000
H     -3.4497440000   -3.2853150000    0.0043590000
H     -3.8786570000   -1.7915370000    0.8961350000
