[057465459_dft.out: Geometry 7]
 OpenBabel09282115313D

 18 18  0  0  0  0  0  0  0  0999 V2000
   -3.5683   -1.4254    0.0020 C   0  0  0  0  0  0  0  0  0  0  0  0
   -3.5232   -2.0548   -0.9074 H   0  0  0  0  0  0  0  0  0  0  0  0
   -2.5622   -0.4556    0.0123 O   0  0  0  0  0  0  0  0  0  0  0  0
   -1.2704   -0.9849   -0.0081 C   0  0  0  0  0  0  0  0  0  0  0  0
   -0.2976    0.1528   -0.0026 C   0  0  0  0  0  0  0  0  0  0  0  0
    1.0787    0.1421   -0.0013 C   0  0  0  0  0  0  0  0  0  0  0  0
    1.6885    1.3694    0.0035 N   0  0  0  0  0  0  0  0  0  0  0  0
    0.8026    2.3088    0.0051 C   0  0  0  0  0  0  0  0  0  0  0  0
   -0.8447    1.7780    0.0005 S   0  0  0  0  0  0  0  0  0  0  0  0
    1.0441    3.3747    0.0090 H   0  0  0  0  0  0  0  0  0  0  0  0
    1.8497   -1.1209   -0.0047 C   0  0  0  0  0  0  0  0  0  0  0  0
    1.3295   -2.2134   -0.0154 O   0  0  0  0  0  0  0  0  0  0  0  0
    3.1688   -0.9474    0.0058 O   0  0  0  0  0  0  0  0  0  0  0  0
    3.5605   -1.8329    0.0023 H   0  0  0  0  0  0  0  0  0  0  0  0
   -1.0934   -1.6134   -0.9034 H   0  0  0  0  0  0  0  0  0  0  0  0
   -1.0744   -1.6387    0.8646 H   0  0  0  0  0  0  0  0  0  0  0  0
   -4.5343   -0.9043    0.0216 H   0  0  0  0  0  0  0  0  0  0  0  0
   -3.5069   -2.0904    0.8846 H   0  0  0  0  0  0  0  0  0  0  0  0
  1  3  1  0  0  0  0
  1 17  1  0  0  0  0
  1 18  1  0  0  0  0
  2  1  1  0  0  0  0
  4  5  1  0  0  0  0
  4  3  1  0  0  0  0
  4 16  1  0  0  0  0
  5  6  2  0  0  0  0
  5  9  1  0  0  0  0
  6  7  1  0  0  0  0
  7  8  2  0  0  0  0
  8 10  1  0  0  0  0
  9  8  1  0  0  0  0
 11  6  1  0  0  0  0
 11 13  1  0  0  0  0
 12 11  2  0  0  0  0
 14 13  1  0  0  0  0
 15  4  1  0  0  0  0
M  END
$$$$
