[065625034_dft.out: Geometry 25]
 OpenBabel09282115313D

 38 38  0  0  0  0  0  0  0  0999 V2000
   -4.6970    0.0302    0.1793 C   0  0  0  0  0  0  0  0  0  0  0  0
   -3.3028    0.1765    0.1663 O   0  0  0  0  0  0  0  0  0  0  0  0
   -2.8506    1.4534   -0.2154 C   0  0  0  0  0  0  0  0  0  0  0  0
   -1.3544    1.5081   -0.0542 C   0  0  0  0  0  0  0  0  0  0  0  0
   -0.5215    1.9797   -1.0673 C   0  0  0  0  0  0  0  0  0  0  0  0
    0.8660    1.9621   -0.9107 C   0  0  0  0  0  0  0  0  0  0  0  0
    1.4533    1.4591    0.2510 C   0  0  0  0  0  0  0  0  0  0  0  0
    0.6080    1.0167    1.2757 C   0  0  0  0  0  0  0  0  0  0  0  0
   -0.7719    1.0431    1.1304 C   0  0  0  0  0  0  0  0  0  0  0  0
   -1.4158    0.6706    1.9312 H   0  0  0  0  0  0  0  0  0  0  0  0
    1.0376    0.6266    2.2037 H   0  0  0  0  0  0  0  0  0  0  0  0
    2.9641    1.3600    0.4202 C   0  0  0  0  0  0  0  0  0  0  0  0
    3.5090    0.0440    0.6923 N   0  0  0  0  0  0  0  0  0  0  0  0
    3.0060   -0.4080    1.4511 H   0  0  0  0  0  0  0  0  0  0  0  0
    3.6521   -0.8801   -0.4132 C   0  0  0  0  0  0  0  0  0  0  0  0
    2.3751   -1.3061   -1.1295 C   0  0  0  0  0  0  0  0  0  0  0  0
    1.4712   -1.8178   -0.1917 O   0  0  0  0  0  0  0  0  0  0  0  0
    0.1583   -1.9133   -0.6741 C   0  0  0  0  0  0  0  0  0  0  0  0
   -0.7569   -2.4261    0.4274 C   0  0  0  0  0  0  0  0  0  0  0  0
   -2.0966   -2.3955    0.0304 O   0  0  0  0  0  0  0  0  0  0  0  0
   -2.3891   -1.4702    0.0082 H   0  0  0  0  0  0  0  0  0  0  0  0
   -0.4950   -3.4688    0.6687 H   0  0  0  0  0  0  0  0  0  0  0  0
   -0.5658   -1.8297    1.3404 H   0  0  0  0  0  0  0  0  0  0  0  0
    0.0996   -2.5880   -1.5521 H   0  0  0  0  0  0  0  0  0  0  0  0
   -0.1993   -0.9166   -1.0045 H   0  0  0  0  0  0  0  0  0  0  0  0
    1.9234   -0.4447   -1.6589 H   0  0  0  0  0  0  0  0  0  0  0  0
    2.6187   -2.0641   -1.9032 H   0  0  0  0  0  0  0  0  0  0  0  0
    4.3399   -0.4460   -1.1609 H   0  0  0  0  0  0  0  0  0  0  0  0
    4.1507   -1.7822   -0.0221 H   0  0  0  0  0  0  0  0  0  0  0  0
    3.2573    2.0287    1.2491 H   0  0  0  0  0  0  0  0  0  0  0  0
    3.4587    1.7611   -0.4800 H   0  0  0  0  0  0  0  0  0  0  0  0
    1.5034    2.3186   -1.7260 H   0  0  0  0  0  0  0  0  0  0  0  0
   -0.9548    2.3438   -2.0036 H   0  0  0  0  0  0  0  0  0  0  0  0
   -3.1327    1.6730   -1.2633 H   0  0  0  0  0  0  0  0  0  0  0  0
   -3.3371    2.2214    0.4200 H   0  0  0  0  0  0  0  0  0  0  0  0
   -5.1672    0.7303    0.8945 H   0  0  0  0  0  0  0  0  0  0  0  0
   -4.9151   -0.9999    0.4897 H   0  0  0  0  0  0  0  0  0  0  0  0
   -5.1371    0.2019   -0.8207 H   0  0  0  0  0  0  0  0  0  0  0  0
  1 37  1  0  0  0  0
  1 36  1  0  0  0  0
  2  1  1  0  0  0  0
  3  4  1  0  0  0  0
  3  2  1  0  0  0  0
  3 35  1  0  0  0  0
  4  9  1  0  0  0  0
  5  6  1  0  0  0  0
  5  4  2  0  0  0  0
  6  7  2  0  0  0  0
  7 12  1  0  0  0  0
  7  8  1  0  0  0  0
  8 11  1  0  0  0  0
  9  8  2  0  0  0  0
  9 10  1  0  0  0  0
 12 13  1  0  0  0  0
 12 30  1  0  0  0  0
 13 14  1  0  0  0  0
 15 29  1  0  0  0  0
 15 13  1  0  0  0  0
 16 15  1  0  0  0  0
 16 17  1  0  0  0  0
 18 17  1  0  0  0  0
 18 19  1  0  0  0  0
 19 22  1  0  0  0  0
 19 23  1  0  0  0  0
 20 19  1  0  0  0  0
 21 20  1  0  0  0  0
 24 18  1  0  0  0  0
 25 18  1  0  0  0  0
 26 16  1  0  0  0  0
 27 16  1  0  0  0  0
 28 15  1  0  0  0  0
 31 12  1  0  0  0  0
 32  6  1  0  0  0  0
 33  5  1  0  0  0  0
 34  3  1  0  0  0  0
 38  1  1  0  0  0  0
M  END
$$$$
