SCF done        -48.376121248309          0.000562413356
 OpenBabel09032122373D

 24 25  0  0  0  0  0  0  0  0999 V2000
    0.9415   -0.6013    0.4624 C   0  0  0  0  0  0  0  0  0  0  0  0
    5.0582   -3.0539   -0.1918 C   0  0  0  0  0  0  0  0  0  0  0  0
    3.7532   -3.8626   -0.0438 C   0  0  0  0  0  0  0  0  0  0  0  0
    3.1057    0.6817    0.1904 C   0  0  0  0  0  0  0  0  0  0  0  0
    5.2315   -0.4431   -0.1459 C   0  0  0  0  0  0  0  0  0  0  0  0
    2.4187   -0.5245    0.2500 C   0  0  0  0  0  0  0  0  0  0  0  0
    4.5583   -1.6433   -0.0847 C   0  0  0  0  0  0  0  0  0  0  0  0
    4.4762    0.7129   -0.0081 C   0  0  0  0  0  0  0  0  0  0  0  0
    3.1794   -1.6812    0.1091 C   0  0  0  0  0  0  0  0  0  0  0  0
    5.6730    2.4053    1.0121 C   0  0  0  0  0  0  0  0  0  0  0  0
    4.8142    2.5229    2.0449 F   0  0  0  0  0  0  0  0  0  0  0  0
    6.6633    1.6148    1.4766 F   0  0  0  0  0  0  0  0  0  0  0  0
    6.2073    3.6072    0.8194 F   0  0  0  0  0  0  0  0  0  0  0  0
    2.6781   -2.9379    0.1426 O   0  0  0  0  0  0  0  0  0  0  0  0
    5.1197    1.9797   -0.0991 O   0  0  0  0  0  0  0  0  0  0  0  0
    0.4975    0.3896    0.4663 H   0  0  0  0  0  0  0  0  0  0  0  0
    0.7271   -1.0910    1.4112 H   0  0  0  0  0  0  0  0  0  0  0  0
    0.4834   -1.1999   -0.3228 H   0  0  0  0  0  0  0  0  0  0  0  0
    5.5443   -3.2362   -1.1508 H   0  0  0  0  0  0  0  0  0  0  0  0
    5.7724   -3.2845    0.5998 H   0  0  0  0  0  0  0  0  0  0  0  0
    3.7727   -4.5290    0.8233 H   0  0  0  0  0  0  0  0  0  0  0  0
    3.5304   -4.4563   -0.9353 H   0  0  0  0  0  0  0  0  0  0  0  0
    2.5705    1.6123    0.2958 H   0  0  0  0  0  0  0  0  0  0  0  0
    6.2980   -0.3949   -0.2942 H   0  0  0  0  0  0  0  0  0  0  0  0
  1 16  1  0  0  0  0
  1 17  1  0  0  0  0
  2  7  1  0  0  0  0
  2  3  1  0  0  0  0
  2 20  1  0  0  0  0
  3 14  1  0  0  0  0
  3 21  1  0  0  0  0
  4  6  1  0  0  0  0
  4 23  1  0  0  0  0
  5  7  2  0  0  0  0
  5  8  1  0  0  0  0
  6  1  1  0  0  0  0
  7  9  1  0  0  0  0
  8  4  2  0  0  0  0
  9 14  1  0  0  0  0
  9  6  2  0  0  0  0
 10 12  1  0  0  0  0
 10 11  1  0  0  0  0
 13 10  1  0  0  0  0
 15  8  1  0  0  0  0
 15 10  1  0  0  0  0
 18  1  1  0  0  0  0
 19  2  1  0  0  0  0
 22  3  1  0  0  0  0
 24  5  1  0  0  0  0
M  END
$$$$
