-44.39047160
 OpenBabel09032117263D

 30 31  0  0  0  0  0  0  0  0999 V2000
    1.7847   -2.3498   -0.7940 C   0  0  0  0  0  0  0  0  0  0  0  0
    1.8791   -2.3506    0.7058 C   0  0  0  0  0  0  0  0  0  0  0  0
    2.3715   -1.1732   -0.0775 C   0  0  0  0  0  0  0  0  0  0  0  0
    1.6934    0.0920   -0.0342 N   0  0  0  0  0  0  0  0  0  0  0  0
    2.4308    1.2348   -0.0744 C   0  0  0  0  0  0  0  0  0  0  0  0
    3.6431    1.2228   -0.1504 O   0  0  0  0  0  0  0  0  0  0  0  0
    1.6237    2.5135   -0.0191 C   0  0  0  0  0  0  0  0  0  0  0  0
    0.9408    2.5674   -0.8638 H   0  0  0  0  0  0  0  0  0  0  0  0
    1.0402    2.5550    0.8977 H   0  0  0  0  0  0  0  0  0  0  0  0
    2.3085    3.3562   -0.0523 H   0  0  0  0  0  0  0  0  0  0  0  0
    0.2761    0.0985    0.0560 C   0  0  0  0  0  0  0  0  0  0  0  0
   -0.3501    0.0902    1.2995 C   0  0  0  0  0  0  0  0  0  0  0  0
   -1.7248    0.0739    1.3843 C   0  0  0  0  0  0  0  0  0  0  0  0
   -2.5080    0.0654    0.2273 C   0  0  0  0  0  0  0  0  0  0  0  0
   -1.8825    0.0775   -1.0153 C   0  0  0  0  0  0  0  0  0  0  0  0
   -0.5002    0.0937   -1.0933 C   0  0  0  0  0  0  0  0  0  0  0  0
   -0.0177    0.1063   -2.0598 H   0  0  0  0  0  0  0  0  0  0  0  0
   -2.4570    0.0734   -1.9279 H   0  0  0  0  0  0  0  0  0  0  0  0
   -3.8520    0.0472    0.4242 O   0  0  0  0  0  0  0  0  0  0  0  0
   -4.7006    0.0399   -0.6988 C   0  0  0  0  0  0  0  0  0  0  0  0
   -5.7139    0.0258   -0.3011 H   0  0  0  0  0  0  0  0  0  0  0  0
   -4.5654    0.9374   -1.3108 H   0  0  0  0  0  0  0  0  0  0  0  0
   -4.5427   -0.8501   -1.3164 H   0  0  0  0  0  0  0  0  0  0  0  0
   -2.2246    0.0662    2.3398 H   0  0  0  0  0  0  0  0  0  0  0  0
    0.2506    0.1001    2.1970 H   0  0  0  0  0  0  0  0  0  0  0  0
    3.4391   -1.0061   -0.1447 H   0  0  0  0  0  0  0  0  0  0  0  0
    0.9590   -2.2489    1.2608 H   0  0  0  0  0  0  0  0  0  0  0  0
    2.6100   -2.9858    1.1812 H   0  0  0  0  0  0  0  0  0  0  0  0
    0.8021   -2.2473   -1.2288 H   0  0  0  0  0  0  0  0  0  0  0  0
    2.4498   -2.9845   -1.3585 H   0  0  0  0  0  0  0  0  0  0  0  0
  1  3  1  0  0  0  0
  1  2  1  0  0  0  0
  2 28  1  0  0  0  0
  2 27  1  0  0  0  0
  3  4  1  0  0  0  0
  3  2  1  0  0  0  0
  4 11  1  0  0  0  0
  5  4  1  0  0  0  0
  5  7  1  0  0  0  0
  6  5  2  0  0  0  0
  7  9  1  0  0  0  0
  8  7  1  0  0  0  0
 10  7  1  0  0  0  0
 11 12  1  0  0  0  0
 12 13  2  0  0  0  0
 12 25  1  0  0  0  0
 13 24  1  0  0  0  0
 14 19  1  0  0  0  0
 14 13  1  0  0  0  0
 15 14  2  0  0  0  0
 16 15  1  0  0  0  0
 16 11  2  0  0  0  0
 17 16  1  0  0  0  0
 18 15  1  0  0  0  0
 20 21  1  0  0  0  0
 20 19  1  0  0  0  0
 22 20  1  0  0  0  0
 23 20  1  0  0  0  0
 26  3  1  0  0  0  0
 29  1  1  0  0  0  0
 30  1  1  0  0  0  0
M  END
$$$$
