[011506687_dft.out: Geometry 7]
 OpenBabel09282115303D

 30 31  0  0  0  0  0  0  0  0999 V2000
    1.8665   -2.3863   -0.8016 C   0  0  0  0  0  0  0  0  0  0  0  0
    1.9443   -2.3859    0.7068 C   0  0  0  0  0  0  0  0  0  0  0  0
    2.3872   -1.1857   -0.0731 C   0  0  0  0  0  0  0  0  0  0  0  0
    1.6745    0.0721   -0.0368 N   0  0  0  0  0  0  0  0  0  0  0  0
    2.4173    1.2361   -0.0754 C   0  0  0  0  0  0  0  0  0  0  0  0
    3.6297    1.2237   -0.1442 O   0  0  0  0  0  0  0  0  0  0  0  0
    1.6354    2.5336   -0.0284 C   0  0  0  0  0  0  0  0  0  0  0  0
    0.9437    2.6156   -0.8789 H   0  0  0  0  0  0  0  0  0  0  0  0
    1.0309    2.6058    0.8869 H   0  0  0  0  0  0  0  0  0  0  0  0
    2.3575    3.3570   -0.0598 H   0  0  0  0  0  0  0  0  0  0  0  0
    0.2522    0.0790    0.0553 C   0  0  0  0  0  0  0  0  0  0  0  0
   -0.3807    0.0770    1.3058 C   0  0  0  0  0  0  0  0  0  0  0  0
   -1.7626    0.0780    1.4008 C   0  0  0  0  0  0  0  0  0  0  0  0
   -2.5500    0.0779    0.2399 C   0  0  0  0  0  0  0  0  0  0  0  0
   -1.9286    0.0773   -1.0129 C   0  0  0  0  0  0  0  0  0  0  0  0
   -0.5357    0.0763   -1.0931 C   0  0  0  0  0  0  0  0  0  0  0  0
   -0.0464    0.0795   -2.0705 H   0  0  0  0  0  0  0  0  0  0  0  0
   -2.5156    0.0782   -1.9320 H   0  0  0  0  0  0  0  0  0  0  0  0
   -3.8852    0.0792    0.4264 O   0  0  0  0  0  0  0  0  0  0  0  0
   -4.7290    0.0797   -0.6948 C   0  0  0  0  0  0  0  0  0  0  0  0
   -5.7574    0.0805   -0.3146 H   0  0  0  0  0  0  0  0  0  0  0  0
   -4.5794    0.9779   -1.3190 H   0  0  0  0  0  0  0  0  0  0  0  0
   -4.5807   -0.8189   -1.3188 H   0  0  0  0  0  0  0  0  0  0  0  0
   -2.2672    0.0794    2.3689 H   0  0  0  0  0  0  0  0  0  0  0  0
    0.2344    0.0799    2.2094 H   0  0  0  0  0  0  0  0  0  0  0  0
    3.4582   -0.9851   -0.1290 H   0  0  0  0  0  0  0  0  0  0  0  0
    0.9943   -2.3339    1.2457 H   0  0  0  0  0  0  0  0  0  0  0  0
    2.7118   -2.9857    1.2028 H   0  0  0  0  0  0  0  0  0  0  0  0
    0.8657   -2.3339   -1.2393 H   0  0  0  0  0  0  0  0  0  0  0  0
    2.5781   -2.9872   -1.3738 H   0  0  0  0  0  0  0  0  0  0  0  0
  1  3  1  0  0  0  0
  1  2  1  0  0  0  0
  2 28  1  0  0  0  0
  2 27  1  0  0  0  0
  3  4  1  0  0  0  0
  3  2  1  0  0  0  0
  4 11  1  0  0  0  0
  5  4  1  0  0  0  0
  5  7  1  0  0  0  0
  6  5  2  0  0  0  0
  7  9  1  0  0  0  0
  8  7  1  0  0  0  0
 10  7  1  0  0  0  0
 11 12  1  0  0  0  0
 12 13  2  0  0  0  0
 12 25  1  0  0  0  0
 13 24  1  0  0  0  0
 14 19  1  0  0  0  0
 14 13  1  0  0  0  0
 15 14  2  0  0  0  0
 16 15  1  0  0  0  0
 16 11  2  0  0  0  0
 17 16  1  0  0  0  0
 18 15  1  0  0  0  0
 20 21  1  0  0  0  0
 20 19  1  0  0  0  0
 22 20  1  0  0  0  0
 23 20  1  0  0  0  0
 26  3  1  0  0  0  0
 29  1  1  0  0  0  0
 30  1  1  0  0  0  0
M  END
$$$$
