33
[039997072_dft.out: Geometry 11]
C     -3.7011320000   -1.3240920000   -1.1113310000
C     -4.1735070000    0.0245350000   -0.6486010000
N     -3.9010550000    0.6248460000    0.4345690000
C     -3.0247440000   -0.0069140000    1.3971980000
C     -1.5568830000    0.0386250000    1.0151200000
C     -1.0170800000    1.1398590000    0.3481750000
C      0.3344570000    1.1937620000    0.0221200000
C      1.1976150000    0.1404020000    0.3601000000
C      0.6629050000   -0.9724380000    1.0269880000
C     -0.6923950000   -1.0095640000    1.3390170000
H     -1.0862820000   -1.8929600000    1.8516270000
H      1.3113040000   -1.8081510000    1.2793670000
N      2.5677570000    0.2274290000    0.0289100000
C      3.4697010000   -0.8225730000    0.0102130000
O      3.2631300000   -1.9618400000    0.3572240000
C      4.7754590000   -0.2933550000   -0.5620610000
C      4.6538100000    1.2200530000   -0.4359250000
H      5.0414110000    1.5511670000    0.5395690000
H      5.1924220000    1.7765830000   -1.2148440000
C      3.1426800000    1.4601210000   -0.4966410000
H      2.7976140000    1.6414540000   -1.5314780000
H      2.8321400000    2.3218860000    0.1128140000
H      4.8287650000   -0.6217510000   -1.6137770000
H      5.6272020000   -0.7430630000   -0.0358470000
H      0.7083400000    2.0711080000   -0.5072310000
H     -1.6711780000    1.9695170000    0.0687190000
H     -3.1538660000    0.5147890000    2.3602830000
H     -3.3058530000   -1.0603700000    1.5889980000
O     -4.9716740000    0.6306480000   -1.5421270000
H     -5.2021230000    1.4834140000   -1.1441910000
H     -3.8727630000   -2.0822420000   -0.3329660000
H     -4.2233170000   -1.6199090000   -2.0281420000
H     -2.6177590000   -1.2928780000   -1.3024490000
