-50.00856561
 OpenBabel09032120383D

 33 34  0  0  0  0  0  0  0  0999 V2000
   -3.4347   -1.4615   -0.9863 C   0  0  0  0  0  0  0  0  0  0  0  0
   -4.0397   -0.1243   -0.6741 C   0  0  0  0  0  0  0  0  0  0  0  0
   -3.8931    0.5908    0.3569 N   0  0  0  0  0  0  0  0  0  0  0  0
   -3.0318    0.1727    1.4392 C   0  0  0  0  0  0  0  0  0  0  0  0
   -1.5740    0.1734    1.0552 C   0  0  0  0  0  0  0  0  0  0  0  0
   -1.0257    1.2771    0.4151 C   0  0  0  0  0  0  0  0  0  0  0  0
    0.3030    1.2952    0.0387 C   0  0  0  0  0  0  0  0  0  0  0  0
    1.1258    0.2005    0.3021 C   0  0  0  0  0  0  0  0  0  0  0  0
    0.5812   -0.9062    0.9498 C   0  0  0  0  0  0  0  0  0  0  0  0
   -0.7520   -0.9153    1.3121 C   0  0  0  0  0  0  0  0  0  0  0  0
   -1.1547   -1.7860    1.8095 H   0  0  0  0  0  0  0  0  0  0  0  0
    1.2002   -1.7630    1.1548 H   0  0  0  0  0  0  0  0  0  0  0  0
    2.4778    0.2287   -0.0664 N   0  0  0  0  0  0  0  0  0  0  0  0
    3.2724   -0.8575   -0.2929 C   0  0  0  0  0  0  0  0  0  0  0  0
    2.9548   -2.0196   -0.1980 O   0  0  0  0  0  0  0  0  0  0  0  0
    4.6404   -0.3461   -0.7213 C   0  0  0  0  0  0  0  0  0  0  0  0
    4.6400    1.1134   -0.2855 C   0  0  0  0  0  0  0  0  0  0  0  0
    5.0035    1.1987    0.7393 H   0  0  0  0  0  0  0  0  0  0  0  0
    5.2476    1.7521   -0.9232 H   0  0  0  0  0  0  0  0  0  0  0  0
    3.1571    1.4815   -0.3471 C   0  0  0  0  0  0  0  0  0  0  0  0
    2.8882    1.8468   -1.3466 H   0  0  0  0  0  0  0  0  0  0  0  0
    2.8805    2.2369    0.3916 H   0  0  0  0  0  0  0  0  0  0  0  0
    4.7110   -0.4452   -1.8067 H   0  0  0  0  0  0  0  0  0  0  0  0
    5.4318   -0.9443   -0.2746 H   0  0  0  0  0  0  0  0  0  0  0  0
    0.6903    2.1645   -0.4691 H   0  0  0  0  0  0  0  0  0  0  0  0
   -1.6558    2.1278    0.2022 H   0  0  0  0  0  0  0  0  0  0  0  0
   -3.1954    0.8947    2.2474 H   0  0  0  0  0  0  0  0  0  0  0  0
   -3.3137   -0.8224    1.8065 H   0  0  0  0  0  0  0  0  0  0  0  0
   -4.8469    0.3303   -1.6477 O   0  0  0  0  0  0  0  0  0  0  0  0
   -5.2023    1.1891   -1.3767 H   0  0  0  0  0  0  0  0  0  0  0  0
   -3.6588   -2.1644   -0.1855 H   0  0  0  0  0  0  0  0  0  0  0  0
   -3.8393   -1.8303   -1.9236 H   0  0  0  0  0  0  0  0  0  0  0  0
   -2.3526   -1.3700   -1.0617 H   0  0  0  0  0  0  0  0  0  0  0  0
  1  2  1  0  0  0  0
  1 31  1  0  0  0  0
  2  3  2  0  0  0  0
  3  4  1  0  0  0  0
  4 28  1  0  0  0  0
  4 27  1  0  0  0  0
  5 10  1  0  0  0  0
  5  4  1  0  0  0  0
  6  5  2  0  0  0  0
  7  8  2  0  0  0  0
  7  6  1  0  0  0  0
  8  9  1  0  0  0  0
  9 12  1  0  0  0  0
  9 10  2  0  0  0  0
 10 11  1  0  0  0  0
 13  8  1  0  0  0  0
 14 15  2  0  0  0  0
 14 13  1  0  0  0  0
 16 14  1  0  0  0  0
 16 17  1  0  0  0  0
 16 24  1  0  0  0  0
 17 18  1  0  0  0  0
 19 17  1  0  0  0  0
 20 17  1  0  0  0  0
 20 13  1  0  0  0  0
 20 22  1  0  0  0  0
 21 20  1  0  0  0  0
 23 16  1  0  0  0  0
 25  7  1  0  0  0  0
 26  6  1  0  0  0  0
 29 30  1  0  0  0  0
 29  2  1  0  0  0  0
 32  1  1  0  0  0  0
 33  1  1  0  0  0  0
M  END
$$$$
