27
[042259589_dft.out: Geometry 8]
C     -3.8784090000   -0.6471360000    0.2326880000
C     -3.3558510000    0.5347710000    0.7544880000
C     -2.0135050000    0.8632280000    0.5928730000
C     -1.1602320000   -0.0045370000   -0.1083630000
C     -1.6891470000   -1.1909770000   -0.6390630000
C     -3.0348720000   -1.5053220000   -0.4659410000
H     -3.4227350000   -2.4368560000   -0.8858890000
H     -1.0544770000   -1.8809200000   -1.1960770000
N      0.2122720000    0.2786610000   -0.2812440000
C      0.8258980000    1.5011210000   -0.0782100000
O      0.3157170000    2.5125760000    0.3427830000
C      2.2783890000    1.3610930000   -0.5086060000
C      2.5206040000   -0.1444440000   -0.5517830000
C      3.0535400000   -0.6678930000    0.7854070000
O      3.1517970000   -2.0664150000    0.8264860000
H      3.8430450000   -2.3428730000    0.2173310000
H      4.0221950000   -0.1789780000    1.0063630000
H      2.3603170000   -0.3806560000    1.5931630000
H      3.2256690000   -0.4298220000   -1.3495380000
C      1.1247630000   -0.7091340000   -0.8449250000
H      0.9500110000   -0.8313600000   -1.9292970000
H      0.9952050000   -1.6914270000   -0.3663120000
H      2.3794400000    1.8296880000   -1.5009320000
H      2.9287750000    1.9184110000    0.1810160000
H     -1.6166610000    1.7920680000    0.9954950000
H     -4.0033320000    1.2213460000    1.3061910000
H     -4.9332160000   -0.8961100000    0.3701960000
