-41.25998510
 OpenBabel09032120433D

 27 28  0  0  1  0  0  0  0  0999 V2000
   -3.8270   -0.6501    0.2753 C   0  0  0  0  0  0  0  0  0  0  0  0
   -3.2695    0.4712    0.8659 C   0  0  0  0  0  0  0  0  0  0  0  0
   -1.9401    0.7889    0.6625 C   0  0  0  0  0  0  0  0  0  0  0  0
   -1.1433   -0.0168   -0.1492 C   0  0  0  0  0  0  0  0  0  0  0  0
   -1.7085   -1.1440   -0.7440 C   0  0  0  0  0  0  0  0  0  0  0  0
   -3.0391   -1.4536   -0.5293 C   0  0  0  0  0  0  0  0  0  0  0  0
   -3.4606   -2.3304   -0.9989 H   0  0  0  0  0  0  0  0  0  0  0  0
   -1.1197   -1.7818   -1.3842 H   0  0  0  0  0  0  0  0  0  0  0  0
    0.2106    0.2823   -0.3591 N   0  0  0  0  0  0  0  0  0  0  0  0
    0.8034    1.4986   -0.1934 C   0  0  0  0  0  0  0  0  0  0  0  0
    0.2757    2.5252    0.1641 O   0  0  0  0  0  0  0  0  0  0  0  0
    2.2729    1.3520   -0.5678 C   0  0  0  0  0  0  0  0  0  0  0  0
    2.5182   -0.1517   -0.5426 C   0  0  1  0  0  0  0  0  0  0  0  0
    2.9795   -0.6168    0.8468 C   0  0  0  0  0  0  0  0  0  0  0  0
    3.1040   -2.0142    0.9330 O   0  0  0  0  0  0  0  0  0  0  0  0
    3.7955   -2.3072    0.3289 H   0  0  0  0  0  0  0  0  0  0  0  0
    3.9272   -0.1234    1.1046 H   0  0  0  0  0  0  0  0  0  0  0  0
    2.2313   -0.3417    1.5941 H   0  0  0  0  0  0  0  0  0  0  0  0
    3.2539   -0.4692   -1.2871 H   0  0  0  0  0  0  0  0  0  0  0  0
    1.1312   -0.7235   -0.8571 C   0  0  0  0  0  0  0  0  0  0  0  0
    0.9995   -0.8664   -1.9368 H   0  0  0  0  0  0  0  0  0  0  0  0
    0.9738   -1.6763   -0.3450 H   0  0  0  0  0  0  0  0  0  0  0  0
    2.4125    1.7695   -1.5669 H   0  0  0  0  0  0  0  0  0  0  0  0
    2.9005    1.9113    0.1242 H   0  0  0  0  0  0  0  0  0  0  0  0
   -1.5182    1.6654    1.1235 H   0  0  0  0  0  0  0  0  0  0  0  0
   -3.8731    1.1061    1.4973 H   0  0  0  0  0  0  0  0  0  0  0  0
   -4.8654   -0.8953    0.4395 H   0  0  0  0  0  0  0  0  0  0  0  0
  1 27  1  0  0  0  0
  1  2  1  0  0  0  0
  2 26  1  0  0  0  0
  3  2  2  0  0  0  0
  3 25  1  0  0  0  0
  4  3  1  0  0  0  0
  5  6  1  0  0  0  0
  5  4  2  0  0  0  0
  6  1  2  0  0  0  0
  7  6  1  0  0  0  0
  8  5  1  0  0  0  0
  9 10  1  0  0  0  0
  9  4  1  0  0  0  0
 10 11  2  0  0  0  0
 12 13  1  0  0  0  0
 12 10  1  0  0  0  0
 12 24  1  0  0  0  0
 13 19  1  6  0  0  0
 13 14  1  0  0  0  0
 14 15  1  0  0  0  0
 14 17  1  0  0  0  0
 14 18  1  0  0  0  0
 16 15  1  0  0  0  0
 20 13  1  0  0  0  0
 20  9  1  0  0  0  0
 20 22  1  0  0  0  0
 21 20  1  0  0  0  0
 23 12  1  0  0  0  0
M  END
$$$$
