29
[043969333_dft.out: Geometry 12]
C      4.1523490000   -1.3669740000   -0.3167260000
C      3.8426710000   -0.1821510000   -0.9821400000
C      2.6261510000    0.4619820000   -0.7791690000
C      1.6876740000   -0.0831940000    0.1116080000
C      2.0016350000   -1.2732610000    0.7846050000
C      3.2229570000   -1.9063090000    0.5673540000
H      3.4454740000   -2.8325770000    1.1029000000
H      1.2969700000   -1.7145380000    1.4907670000
N      0.4348280000    0.5290690000    0.3398130000
C      0.0877960000    1.8273110000    0.0130080000
O      0.7528100000    2.6321710000   -0.5952530000
C     -1.3005220000    2.0763920000    0.5866180000
H     -1.8932960000    2.7298800000   -0.0668570000
H     -1.1769130000    2.5918310000    1.5524440000
C     -1.8785630000    0.6809020000    0.7807850000
N     -2.5490370000    0.2565760000   -0.4335760000
C     -3.2617450000   -0.9138660000   -0.5299830000
N     -3.7388430000   -1.4801170000   -1.5622630000
H     -3.5337450000   -0.9694600000   -2.4186530000
O     -3.4549740000   -1.4672240000    0.6832810000
H     -3.9922590000   -2.2536000000    0.5181580000
H     -2.2041070000    0.6284800000   -1.3090860000
H     -2.5952960000    0.6205910000    1.6093010000
C     -0.6176200000   -0.1430500000    1.0928260000
H     -0.7353830000   -1.1871710000    0.7709980000
H     -0.3983860000   -0.1418400000    2.1762410000
H      2.3978060000    1.3913520000   -1.2955970000
H      4.5608840000    0.2560980000   -1.6799710000
H      5.1104830000   -1.8638030000   -0.4852330000
