30
[072800758_dft.out: Geometry 9]
C     -2.2638330000   -2.9091650000   -1.3927100000
C     -1.6641140000   -1.6930320000   -0.7577620000
C     -1.8600730000   -1.3133130000    0.5053050000
C     -1.2838530000   -0.0768550000    1.1589300000
N     -0.3141860000    0.6371950000    0.3275090000
C     -0.8886640000    1.7201070000   -0.3211990000
O     -0.3528540000    2.4599590000   -1.1125040000
C     -2.3371940000    1.8084510000    0.1296820000
C     -2.3680300000    0.9892080000    1.4113610000
H     -3.3450920000    0.5374020000    1.6307970000
H     -2.0804050000    1.6131170000    2.2716030000
H     -2.6313860000    2.8605100000    0.2354290000
H     -2.9626250000    1.3633060000   -0.6617640000
C      1.0230220000    0.1957540000    0.1929580000
C      1.4081420000   -1.0370790000    0.7438550000
C      2.7248590000   -1.4781110000    0.6434380000
C      3.6838350000   -0.7087140000   -0.0092310000
C      3.3032010000    0.5125980000   -0.5604840000
C      1.9919140000    0.9702490000   -0.4663870000
H      1.7043300000    1.9211130000   -0.9079700000
H      4.0401530000    1.1318380000   -1.0787290000
H      4.7155720000   -1.0585230000   -0.0905000000
H      2.9964320000   -2.4434140000    1.0782490000
H      0.6760410000   -1.6767130000    1.2370830000
H     -0.8045450000   -0.3640270000    2.1094990000
H     -2.5073250000   -1.9154960000    1.1567290000
H     -1.0032490000   -1.0853500000   -1.3895640000
H     -2.9089000000   -3.4599910000   -0.6925120000
H     -2.8655020000   -2.6374490000   -2.2748680000
H     -1.4762700000   -3.5933730000   -1.7468420000
