010442429.out
 OpenBabel09212116513D

 27 27  0  0  0  0  0  0  0  0999 V2000
    2.5029    2.2936    0.3042 C   0  0  0  0  0  0  0  0  0  0  0  0
    1.0183    2.1581   -0.0122 C   0  0  0  0  0  0  0  0  0  0  0  0
    0.7285    2.8640   -0.7948 H   0  0  0  0  0  0  0  0  0  0  0  0
    0.4227    2.3632    0.8890 H   0  0  0  0  0  0  0  0  0  0  0  0
    0.6516    0.8902   -0.5340 O   0  0  0  0  0  0  0  0  0  0  0  0
    0.6314   -0.1669    0.3793 C   0  0  0  0  0  0  0  0  0  0  0  0
    1.8880   -0.7121    0.6419 O   0  0  0  0  0  0  0  0  0  0  0  0
    2.5967   -1.2174   -0.4849 C   0  0  0  0  0  0  0  0  0  0  0  0
    4.0684   -1.3206   -0.1184 C   0  0  0  0  0  0  0  0  0  0  0  0
    4.6249   -1.7440   -0.9499 H   0  0  0  0  0  0  0  0  0  0  0  0
    4.4693   -0.3385    0.1163 H   0  0  0  0  0  0  0  0  0  0  0  0
    4.1859   -1.9590    0.7527 H   0  0  0  0  0  0  0  0  0  0  0  0
    2.2070   -2.2098   -0.7514 H   0  0  0  0  0  0  0  0  0  0  0  0
    2.4553   -0.5415   -1.3365 H   0  0  0  0  0  0  0  0  0  0  0  0
   -0.3707   -1.2107   -0.1765 C   0  0  0  0  0  0  0  0  0  0  0  0
   -1.7312   -0.6331   -0.1670 C   0  0  0  0  0  0  0  0  0  0  0  0
   -2.4363   -0.5842    0.9685 O   0  0  0  0  0  0  0  0  0  0  0  0
   -2.4990   -0.0247   -1.1316 C   0  0  0  0  0  0  0  0  0  0  0  0
   -3.6439    0.3625   -0.5254 N   0  0  0  0  0  0  0  0  0  0  0  0
   -3.6217    0.0476    0.6805 N   0  0  0  0  0  0  0  0  0  0  0  0
   -2.3046    0.1480   -2.1673 H   0  0  0  0  0  0  0  0  0  0  0  0
   -0.3272   -2.0969    0.4574 H   0  0  0  0  0  0  0  0  0  0  0  0
   -0.0918   -1.4570   -1.2000 H   0  0  0  0  0  0  0  0  0  0  0  0
    0.2825    0.1786    1.3675 H   0  0  0  0  0  0  0  0  0  0  0  0
    2.7938    1.5765    1.0677 H   0  0  0  0  0  0  0  0  0  0  0  0
    2.7040    3.2987    0.6653 H   0  0  0  0  0  0  0  0  0  0  0  0
    3.0945    2.1150   -0.5904 H   0  0  0  0  0  0  0  0  0  0  0  0
  1 26  1  0  0  0  0
  1 25  1  0  0  0  0
  2  1  1  0  0  0  0
  2  4  1  0  0  0  0
  3  2  1  0  0  0  0
  5  2  1  0  0  0  0
  5  6  1  0  0  0  0
  6  7  1  0  0  0  0
  6 24  1  0  0  0  0
  8  9  1  0  0  0  0
  8  7  1  0  0  0  0
  9 11  1  0  0  0  0
  9 12  1  0  0  0  0
 10  9  1  0  0  0  0
 13  8  1  0  0  0  0
 14  8  1  0  0  0  0
 15 16  1  0  0  0  0
 15  6  1  0  0  0  0
 15 22  1  0  0  0  0
 16 17  1  0  0  0  0
 18 19  1  0  0  0  0
 18 16  2  0  0  0  0
 19 20  2  0  0  0  0
 20 17  1  0  0  0  0
 21 18  1  0  0  0  0
 23 15  1  0  0  0  0
 27  1  1  0  0  0  0
M  END
