27
[010442429_dft.out: Geometry 9]
C      2.5388280000    2.3399890000    0.2258920000
C      1.0382400000    2.1768850000    0.0509780000
H      0.6497670000    2.9263830000   -0.6546730000
H      0.5176120000    2.3362100000    1.0146440000
O      0.6557580000    0.9240390000   -0.4852070000
C      0.6261520000   -0.1493160000    0.3973700000
O      1.8823830000   -0.6976300000    0.6497800000
C      2.5837690000   -1.2281130000   -0.4599100000
C      4.0442600000   -1.3559980000   -0.0842660000
H      4.6102580000   -1.8317270000   -0.8987060000
H      4.4849260000   -0.3684830000    0.1162620000
H      4.1538340000   -1.9704390000    0.8211520000
H      2.1759680000   -2.2205920000   -0.7312180000
H      2.4611500000   -0.5652120000   -1.3344500000
C     -0.3598100000   -1.1722840000   -0.1848260000
C     -1.7455780000   -0.6395880000   -0.2087310000
O     -2.4670430000   -0.6946360000    0.9094160000
C     -2.5104050000   -0.0102640000   -1.1419180000
N     -3.6997140000    0.2925840000   -0.5344140000
N     -3.6946860000   -0.0958120000    0.6563710000
H     -2.2937020000    0.2483110000   -2.1740800000
H     -0.3236440000   -2.0874390000    0.4234340000
H     -0.0591420000   -1.4200580000   -1.2121860000
H      0.2674860000    0.1825370000    1.3901000000
H      2.9316000000    1.6331630000    0.9697060000
H      2.7719730000    3.3631430000    0.5576290000
H      3.0590600000    2.1639490000   -0.7281510000
