[023440332_dft.out: Geometry 11]
 OpenBabel09282115313D

 40 40  0  0  0  0  0  0  0  0999 V2000
   -3.8621   -1.5361    0.2499 C   0  0  0  0  0  0  0  0  0  0  0  0
   -3.2450   -2.2693    0.7912 H   0  0  0  0  0  0  0  0  0  0  0  0
   -4.6806   -2.0898   -0.2332 H   0  0  0  0  0  0  0  0  0  0  0  0
   -4.3161   -0.8611    0.9945 H   0  0  0  0  0  0  0  0  0  0  0  0
   -3.0406   -0.7675   -0.7798 C   0  0  0  0  0  0  0  0  0  0  0  0
   -1.9813    0.1545   -0.1815 C   0  0  0  0  0  0  0  0  0  0  0  0
   -0.9964   -0.5746    0.7176 C   0  0  0  0  0  0  0  0  0  0  0  0
   -0.4460   -1.6579    0.0162 O   0  0  0  0  0  0  0  0  0  0  0  0
    0.4298   -2.4642    0.7670 C   0  0  0  0  0  0  0  0  0  0  0  0
    1.8191   -1.8776    0.9847 C   0  0  0  0  0  0  0  0  0  0  0  0
    2.6429   -1.9140   -0.1555 O   0  0  0  0  0  0  0  0  0  0  0  0
    2.3725   -0.9949   -1.1853 C   0  0  0  0  0  0  0  0  0  0  0  0
    2.8176    0.4251   -0.8905 C   0  0  0  0  0  0  0  0  0  0  0  0
    1.9229    1.0450   -0.0035 O   0  0  0  0  0  0  0  0  0  0  0  0
    2.2460    2.3794    0.3024 C   0  0  0  0  0  0  0  0  0  0  0  0
    1.1853    2.9494    1.2190 C   0  0  0  0  0  0  0  0  0  0  0  0
    1.1325    2.3691    2.1529 H   0  0  0  0  0  0  0  0  0  0  0  0
    0.1993    2.9251    0.7293 H   0  0  0  0  0  0  0  0  0  0  0  0
    1.4229    3.9919    1.4771 H   0  0  0  0  0  0  0  0  0  0  0  0
    3.2472    2.4239    0.7770 H   0  0  0  0  0  0  0  0  0  0  0  0
    2.3087    2.9733   -0.6323 H   0  0  0  0  0  0  0  0  0  0  0  0
    3.8417    0.4085   -0.4663 H   0  0  0  0  0  0  0  0  0  0  0  0
    2.8626    0.9918   -1.8441 H   0  0  0  0  0  0  0  0  0  0  0  0
    1.3024   -0.9934   -1.4546 H   0  0  0  0  0  0  0  0  0  0  0  0
    2.9407   -1.3519   -2.0579 H   0  0  0  0  0  0  0  0  0  0  0  0
    2.3279   -2.5005    1.7376 H   0  0  0  0  0  0  0  0  0  0  0  0
    1.7483   -0.8553    1.3940 H   0  0  0  0  0  0  0  0  0  0  0  0
   -0.0197   -2.6877    1.7565 H   0  0  0  0  0  0  0  0  0  0  0  0
    0.5288   -3.4145    0.2199 H   0  0  0  0  0  0  0  0  0  0  0  0
   -1.5126   -0.9371    1.6319 H   0  0  0  0  0  0  0  0  0  0  0  0
   -0.2120    0.1357    1.0389 H   0  0  0  0  0  0  0  0  0  0  0  0
   -1.3008    1.1131   -1.1800 C   0  0  0  0  0  0  0  0  0  0  0  0
   -1.7148    1.0849   -2.2032 H   0  0  0  0  0  0  0  0  0  0  0  0
   -0.2015    1.0527   -1.2193 H   0  0  0  0  0  0  0  0  0  0  0  0
   -1.7463    2.2645   -0.4539 O   0  0  0  0  0  0  0  0  0  0  0  0
   -2.4878    1.4624    0.4612 C   0  0  0  0  0  0  0  0  0  0  0  0
   -2.1865    1.6378    1.5104 H   0  0  0  0  0  0  0  0  0  0  0  0
   -3.5773    1.6289    0.3762 H   0  0  0  0  0  0  0  0  0  0  0  0
   -2.5339   -1.4772   -1.4538 H   0  0  0  0  0  0  0  0  0  0  0  0
   -3.7094   -0.1564   -1.4101 H   0  0  0  0  0  0  0  0  0  0  0  0
  1  2  1  0  0  0  0
  1  4  1  0  0  0  0
  3  1  1  0  0  0  0
  5  6  1  0  0  0  0
  5  1  1  0  0  0  0
  6 36  1  0  0  0  0
  6  7  1  0  0  0  0
  7 31  1  0  0  0  0
  7 30  1  0  0  0  0
  8  7  1  0  0  0  0
  8  9  1  0  0  0  0
  9 10  1  0  0  0  0
  9 28  1  0  0  0  0
 10 27  1  0  0  0  0
 10 26  1  0  0  0  0
 11 10  1  0  0  0  0
 12 13  1  0  0  0  0
 12 11  1  0  0  0  0
 13 22  1  0  0  0  0
 13 14  1  0  0  0  0
 14 15  1  0  0  0  0
 15 20  1  0  0  0  0
 15 16  1  0  0  0  0
 16 19  1  0  0  0  0
 16 17  1  0  0  0  0
 18 16  1  0  0  0  0
 21 15  1  0  0  0  0
 23 13  1  0  0  0  0
 24 12  1  0  0  0  0
 25 12  1  0  0  0  0
 29  9  1  0  0  0  0
 32 35  1  0  0  0  0
 32  6  1  0  0  0  0
 33 32  1  0  0  0  0
 34 32  1  0  0  0  0
 35 36  1  0  0  0  0
 36 37  1  0  0  0  0
 38 36  1  0  0  0  0
 39  5  1  0  0  0  0
 40  5  1  0  0  0  0
M  END
$$$$
