-54.17143476
 OpenBabel09032121003D

 40 40  0  0  0  0  0  0  0  0999 V2000
   -3.9069   -1.4790    0.2741 C   0  0  0  0  0  0  0  0  0  0  0  0
   -3.3219   -2.2011    0.8364 H   0  0  0  0  0  0  0  0  0  0  0  0
   -4.7165   -2.0119   -0.2187 H   0  0  0  0  0  0  0  0  0  0  0  0
   -4.3395   -0.7631    0.9700 H   0  0  0  0  0  0  0  0  0  0  0  0
   -3.0433   -0.7712   -0.7646 C   0  0  0  0  0  0  0  0  0  0  0  0
   -1.9891    0.1466   -0.1514 C   0  0  0  0  0  0  0  0  0  0  0  0
   -0.9902   -0.6049    0.7258 C   0  0  0  0  0  0  0  0  0  0  0  0
   -0.4424   -1.6721   -0.0178 O   0  0  0  0  0  0  0  0  0  0  0  0
    0.4471   -2.4947    0.7008 C   0  0  0  0  0  0  0  0  0  0  0  0
    1.8412   -1.8962    0.9580 C   0  0  0  0  0  0  0  0  0  0  0  0
    2.6885   -1.9506   -0.1710 O   0  0  0  0  0  0  0  0  0  0  0  0
    2.4009   -1.0044   -1.1770 C   0  0  0  0  0  0  0  0  0  0  0  0
    2.8672    0.4150   -0.8310 C   0  0  0  0  0  0  0  0  0  0  0  0
    1.9172    1.0540   -0.0093 O   0  0  0  0  0  0  0  0  0  0  0  0
    2.2434    2.3968    0.2840 C   0  0  0  0  0  0  0  0  0  0  0  0
    1.1490    2.9954    1.1526 C   0  0  0  0  0  0  0  0  0  0  0  0
    1.0625    2.4357    2.0809 H   0  0  0  0  0  0  0  0  0  0  0  0
    0.1960    2.9643    0.6305 H   0  0  0  0  0  0  0  0  0  0  0  0
    1.3919    4.0285    1.3851 H   0  0  0  0  0  0  0  0  0  0  0  0
    3.2147    2.4347    0.8035 H   0  0  0  0  0  0  0  0  0  0  0  0
    2.3402    2.9651   -0.6544 H   0  0  0  0  0  0  0  0  0  0  0  0
    3.8410    0.3662   -0.3199 H   0  0  0  0  0  0  0  0  0  0  0  0
    2.9952    0.9887   -1.7626 H   0  0  0  0  0  0  0  0  0  0  0  0
    1.3299   -0.9880   -1.4039 H   0  0  0  0  0  0  0  0  0  0  0  0
    2.9541   -1.3492   -2.0539 H   0  0  0  0  0  0  0  0  0  0  0  0
    2.3427   -2.5034    1.7161 H   0  0  0  0  0  0  0  0  0  0  0  0
    1.7527   -0.8677    1.3216 H   0  0  0  0  0  0  0  0  0  0  0  0
    0.0005   -2.7715    1.6685 H   0  0  0  0  0  0  0  0  0  0  0  0
    0.5618   -3.3946    0.0902 H   0  0  0  0  0  0  0  0  0  0  0  0
   -1.4927   -0.9929    1.6266 H   0  0  0  0  0  0  0  0  0  0  0  0
   -0.2052    0.0932    1.0431 H   0  0  0  0  0  0  0  0  0  0  0  0
   -1.3105    1.1098   -1.1425 C   0  0  0  0  0  0  0  0  0  0  0  0
   -1.6996    1.0781   -2.1637 H   0  0  0  0  0  0  0  0  0  0  0  0
   -0.2199    1.0759   -1.1548 H   0  0  0  0  0  0  0  0  0  0  0  0
   -1.8009    2.2492   -0.4260 O   0  0  0  0  0  0  0  0  0  0  0  0
   -2.5181    1.4354    0.5010 C   0  0  0  0  0  0  0  0  0  0  0  0
   -2.2030    1.6158    1.5329 H   0  0  0  0  0  0  0  0  0  0  0  0
   -3.5981    1.5880    0.4159 H   0  0  0  0  0  0  0  0  0  0  0  0
   -2.5281   -1.5119   -1.3780 H   0  0  0  0  0  0  0  0  0  0  0  0
   -3.6836   -0.1722   -1.4164 H   0  0  0  0  0  0  0  0  0  0  0  0
  1  2  1  0  0  0  0
  1  4  1  0  0  0  0
  3  1  1  0  0  0  0
  5  6  1  0  0  0  0
  5  1  1  0  0  0  0
  6 36  1  0  0  0  0
  6  7  1  0  0  0  0
  7 31  1  0  0  0  0
  7 30  1  0  0  0  0
  8  9  1  0  0  0  0
  8  7  1  0  0  0  0
  9 10  1  0  0  0  0
  9 28  1  0  0  0  0
 10 27  1  0  0  0  0
 10 26  1  0  0  0  0
 11 10  1  0  0  0  0
 12 13  1  0  0  0  0
 12 11  1  0  0  0  0
 13 22  1  0  0  0  0
 13 14  1  0  0  0  0
 14 15  1  0  0  0  0
 15 20  1  0  0  0  0
 15 16  1  0  0  0  0
 16 19  1  0  0  0  0
 16 17  1  0  0  0  0
 18 16  1  0  0  0  0
 21 15  1  0  0  0  0
 23 13  1  0  0  0  0
 24 12  1  0  0  0  0
 25 12  1  0  0  0  0
 29  9  1  0  0  0  0
 32 35  1  0  0  0  0
 32  6  1  0  0  0  0
 33 32  1  0  0  0  0
 34 32  1  0  0  0  0
 35 36  1  0  0  0  0
 36 37  1  0  0  0  0
 38 36  1  0  0  0  0
 39  5  1  0  0  0  0
 40  5  1  0  0  0  0
M  END
$$$$
