36
[023514586_dft.out: Geometry 10]
C      1.9877620000    1.6810330000    1.2277640000
H      3.0499050000    1.6544720000    1.5175720000
H      1.6385010000    2.7227390000    1.2923070000
H      1.4058280000    1.0939550000    1.9526030000
C      1.8180860000    1.1599540000   -0.1951030000
C      2.5228830000    2.0330050000   -1.2196070000
H      3.6017120000    2.0738570000   -1.0042450000
H      2.1229700000    3.0574970000   -1.2059970000
H      2.3918100000    1.6158320000   -2.2284470000
O      2.3499060000   -0.1417810000   -0.3669920000
C      1.7719170000   -1.1960490000    0.3462260000
C      0.3457100000   -1.5974500000   -0.1010240000
C     -0.6648480000   -0.6368990000    0.5275480000
O     -0.6791150000   -0.3684560000    1.7046870000
O     -1.5540740000   -0.1556710000   -0.3430200000
C     -2.5717270000    0.7364410000    0.1512100000
C     -2.0031730000    2.1391830000    0.2888550000
H     -1.1773270000    2.1518300000    1.0135660000
H     -1.6350710000    2.5052890000   -0.6821690000
H     -2.7804530000    2.8302920000    0.6470950000
C     -3.7255550000    0.6409400000   -0.8280790000
H     -4.5579890000    1.2806140000   -0.5007750000
H     -4.0905370000   -0.3934970000   -0.8984400000
H     -3.4103740000    0.9656370000   -1.8311610000
H     -2.8767970000    0.3713120000    1.1444950000
C      0.2545320000   -1.6541870000   -1.6253360000
H      1.0192610000   -2.3425520000   -2.0163850000
H     -0.7331060000   -2.0097010000   -1.9507620000
H      0.4267060000   -0.6702440000   -2.0814060000
C      0.0390580000   -2.9751090000    0.5133910000
H      0.1398660000   -2.9473350000    1.6083690000
H      0.7294900000   -3.7331500000    0.1132530000
H     -0.9875660000   -3.2912070000    0.2730210000
H      1.7576210000   -1.0062560000    1.4351580000
H      2.4321990000   -2.0596440000    0.1700190000
H      0.7373910000    1.1508070000   -0.4431910000
