-46.46425335
 OpenBabel09032122183D

 41 40  0  0  1  0  0  0  0  0999 V2000
   -3.1709   -2.5181   -1.4283 C   0  0  0  0  0  0  0  0  0  0  0  0
   -3.4262   -3.3176   -0.7355 H   0  0  0  0  0  0  0  0  0  0  0  0
   -2.2612   -1.4982   -0.7558 C   0  0  0  0  0  0  0  0  0  0  0  0
   -2.9195   -0.8678    0.4686 C   0  0  0  0  0  0  0  0  0  0  0  0
   -3.1377   -1.6387    1.2106 H   0  0  0  0  0  0  0  0  0  0  0  0
   -3.8588   -0.3974    0.1733 H   0  0  0  0  0  0  0  0  0  0  0  0
   -2.0273    0.1906    1.1087 C   0  0  0  0  0  0  0  0  0  0  0  0
   -1.9447    1.2993    0.2365 O   0  0  0  0  0  0  0  0  0  0  0  0
   -1.2012    2.3856    0.7354 C   0  0  0  0  0  0  0  0  0  0  0  0
    0.3095    2.1345    0.7827 C   0  0  0  0  0  0  0  0  0  0  0  0
    0.5157    1.3108    1.4664 H   0  0  0  0  0  0  0  0  0  0  0  0
    0.7994    3.0288    1.1706 H   0  0  0  0  0  0  0  0  0  0  0  0
    0.8687    1.7727   -0.5990 C   0  0  1  0  0  0  0  0  0  0  0  0
    1.3228    3.0130   -1.3619 C   0  0  0  0  0  0  0  0  0  0  0  0
    2.1508    3.4951   -0.8453 H   0  0  0  0  0  0  0  0  0  0  0  0
    0.5069    3.7263   -1.4473 H   0  0  0  0  0  0  0  0  0  0  0  0
    1.6522    2.7494   -2.3648 H   0  0  0  0  0  0  0  0  0  0  0  0
    2.0188    0.7687   -0.4625 C   0  0  0  0  0  0  0  0  0  0  0  0
    1.5299   -0.4512    0.1485 N   0  0  0  0  0  0  0  0  0  0  0  0
    0.8300   -0.8731   -0.4555 H   0  0  0  0  0  0  0  0  0  0  0  0
    2.5256   -1.4426    0.5122 C   0  0  0  0  0  0  0  0  0  0  0  0
    1.8440   -2.5040    1.3756 C   0  0  0  0  0  0  0  0  0  0  0  0
    2.5758   -3.2076    1.7635 H   0  0  0  0  0  0  0  0  0  0  0  0
    1.3325   -2.0318    2.2100 H   0  0  0  0  0  0  0  0  0  0  0  0
    1.1114   -3.0542    0.7884 H   0  0  0  0  0  0  0  0  0  0  0  0
    3.2235   -2.1016   -0.6858 C   0  0  0  0  0  0  0  0  0  0  0  0
    2.4904   -2.5958   -1.3219 H   0  0  0  0  0  0  0  0  0  0  0  0
    3.7557   -1.3614   -1.2788 H   0  0  0  0  0  0  0  0  0  0  0  0
    3.9400   -2.8435   -0.3427 H   0  0  0  0  0  0  0  0  0  0  0  0
    3.2795   -0.9238    1.1181 H   0  0  0  0  0  0  0  0  0  0  0  0
    2.4701    0.6067   -1.4565 H   0  0  0  0  0  0  0  0  0  0  0  0
    2.7927    1.1835    0.1917 H   0  0  0  0  0  0  0  0  0  0  0  0
    0.0654    1.2858   -1.1629 H   0  0  0  0  0  0  0  0  0  0  0  0
   -1.4225    3.2105    0.0522 H   0  0  0  0  0  0  0  0  0  0  0  0
   -1.5611    2.6579    1.7405 H   0  0  0  0  0  0  0  0  0  0  0  0
   -2.4541    0.5141    2.0725 H   0  0  0  0  0  0  0  0  0  0  0  0
   -1.0306   -0.2309    1.2962 H   0  0  0  0  0  0  0  0  0  0  0  0
   -2.0111   -0.7047   -1.4614 H   0  0  0  0  0  0  0  0  0  0  0  0
   -1.3327   -1.9860   -0.4483 H   0  0  0  0  0  0  0  0  0  0  0  0
   -4.0930   -2.0460   -1.7596 H   0  0  0  0  0  0  0  0  0  0  0  0
   -2.6811   -2.9580   -2.2943 H   0  0  0  0  0  0  0  0  0  0  0  0
  1  3  1  0  0  0  0
  1  2  1  0  0  0  0
  3 39  1  0  0  0  0
  3  4  1  0  0  0  0
  4  7  1  0  0  0  0
  4  5  1  0  0  0  0
  6  4  1  0  0  0  0
  7 37  1  0  0  0  0
  7 36  1  0  0  0  0
  8  9  1  0  0  0  0
  8  7  1  0  0  0  0
  9 10  1  0  0  0  0
  9 35  1  0  0  0  0
 10 12  1  0  0  0  0
 10 11  1  0  0  0  0
 13 33  1  6  0  0  0
 13 18  1  0  0  0  0
 13 10  1  0  0  0  0
 14 15  1  0  0  0  0
 14 13  1  0  0  0  0
 16 14  1  0  0  0  0
 17 14  1  0  0  0  0
 18 19  1  0  0  0  0
 18 32  1  0  0  0  0
 19 21  1  0  0  0  0
 20 19  1  0  0  0  0
 21 30  1  0  0  0  0
 21 22  1  0  0  0  0
 22 23  1  0  0  0  0
 22 24  1  0  0  0  0
 25 22  1  0  0  0  0
 26 29  1  0  0  0  0
 26 21  1  0  0  0  0
 27 26  1  0  0  0  0
 28 26  1  0  0  0  0
 31 18  1  0  0  0  0
 34  9  1  0  0  0  0
 38  3  1  0  0  0  0
 40  1  1  0  0  0  0
 41  1  1  0  0  0  0
M  END
$$$$
