19
[018457280_dft.out: Geometry 9]
C     -2.5587160000   -0.6480170000    0.7184810000
N     -1.6833710000   -0.6171770000   -0.4492150000
C     -0.3829520000   -0.1159900000   -0.2058330000
C      0.7189500000   -0.9495150000   -0.0303600000
C      2.0037420000   -0.4745770000    0.1951270000
C      2.1814740000    0.9048160000    0.2709960000
C      1.1079530000    1.7752470000    0.1029910000
C     -0.1790850000    1.2801160000   -0.1506010000
N     -1.2788960000    2.1028150000   -0.3212630000
H     -1.0755030000    3.0512800000   -0.6091090000
H     -2.0137670000    1.6586460000   -0.8660620000
H      1.2649590000    2.8559740000    0.1540960000
H      3.1786910000    1.3109970000    0.4569610000
H      2.8263360000   -1.1809130000    0.3149930000
F      0.5094370000   -2.2746410000   -0.1045570000
H     -1.6253300000   -1.5389240000   -0.8712200000
H     -2.6691620000    0.3690400000    1.1223070000
H     -2.1840290000   -1.2980180000    1.5314630000
H     -3.5559320000   -1.0017600000    0.4184030000
