[026188732_dft.out: Geometry 9]
 OpenBabel09282115273D

 29 30  0  0  0  0  0  0  0  0999 V2000
    3.5076    0.2927    0.0001 C   0  0  0  0  0  0  0  0  0  0  0  0
    2.9339   -0.9627    0.0004 C   0  0  0  0  0  0  0  0  0  0  0  0
    1.5179   -1.1317    0.0005 C   0  0  0  0  0  0  0  0  0  0  0  0
    0.9694   -2.4325    0.0008 C   0  0  0  0  0  3  0  0  0  0  0  0
   -0.3322   -2.6955    0.0008 O   0  0  0  0  0  0  0  0  0  0  0  0
    1.6181   -3.3133    0.0011 H   0  0  0  0  0  0  0  0  0  0  0  0
    0.7028    0.0461    0.0003 C   0  0  0  0  0  0  0  0  0  0  0  0
    1.3309    1.2887   -0.0001 C   0  0  0  0  0  0  0  0  0  0  0  0
    2.7113    1.4472   -0.0003 C   0  0  0  0  0  0  0  0  0  0  0  0
    3.1340    2.4527   -0.0007 H   0  0  0  0  0  0  0  0  0  0  0  0
    0.5632    2.3920   -0.0009 F   0  0  0  0  0  0  0  0  0  0  0  0
   -0.7285   -0.0816    0.0004 N   0  0  0  0  0  0  0  0  0  0  0  0
   -1.3808    0.4034    1.2242 C   0  0  0  0  0  0  0  0  0  0  0  0
   -0.8765   -0.0598    2.0863 H   0  0  0  0  0  0  0  0  0  0  0  0
   -2.8616    0.0268    1.2012 C   0  0  0  0  0  0  0  0  0  0  0  0
   -3.3664    0.4442    2.0858 H   0  0  0  0  0  0  0  0  0  0  0  0
   -3.5503    0.4647    0.0005 N   0  0  0  0  0  0  0  0  0  0  0  0
   -0.7753   -1.8024    0.0004 H   0  0  0  0  0  0  0  0  0  0  0  0
   -3.6416    1.4789    0.0007 H   0  0  0  0  0  0  0  0  0  0  0  0
   -2.8616    0.0273   -1.2003 C   0  0  0  0  0  0  0  0  0  0  0  0
   -3.3664    0.4450   -2.0847 H   0  0  0  0  0  0  0  0  0  0  0  0
   -1.3809    0.4038   -1.2232 C   0  0  0  0  0  0  0  0  0  0  0  0
   -0.8766   -0.0592   -2.0854 H   0  0  0  0  0  0  0  0  0  0  0  0
   -1.2694    1.5013   -1.3200 H   0  0  0  0  0  0  0  0  0  0  0  0
   -2.9543   -1.0715   -1.2709 H   0  0  0  0  0  0  0  0  0  0  0  0
   -2.9542   -1.0720    1.2714 H   0  0  0  0  0  0  0  0  0  0  0  0
   -1.2694    1.5009    1.3213 H   0  0  0  0  0  0  0  0  0  0  0  0
    3.5671   -1.8538    0.0007 H   0  0  0  0  0  0  0  0  0  0  0  0
    4.5959    0.3925   -0.0000 H   0  0  0  0  0  0  0  0  0  0  0  0
  1  2  1  0  0  0  0
  2  3  2  0  0  0  0
  2 28  1  0  0  0  0
  3  4  1  0  0  0  0
  4  5  1  0  0  0  0
  4  6  1  0  0  0  0
  7 12  1  0  0  0  0
  7  3  1  0  0  0  0
  8  7  2  0  0  0  0
  9  8  1  0  0  0  0
  9  1  2  0  0  0  0
 10  9  1  0  0  0  0
 11  8  1  0  0  0  0
 12 13  1  0  0  0  0
 13 27  1  0  0  0  0
 13 14  1  0  0  0  0
 15 13  1  0  0  0  0
 15 26  1  0  0  0  0
 15 16  1  0  0  0  0
 17 19  1  0  0  0  0
 17 15  1  0  0  0  0
 18  5  1  0  0  0  0
 20 17  1  0  0  0  0
 21 20  1  0  0  0  0
 22 20  1  0  0  0  0
 22 12  1  0  0  0  0
 23 22  1  0  0  0  0
 24 22  1  0  0  0  0
 25 20  1  0  0  0  0
 29  1  1  0  0  0  0
M  END
$$$$
