[043547407_dft.out: Geometry 12]
 OpenBabel09282115273D

 30 31  0  0  0  0  0  0  0  0999 V2000
   -4.0229   -1.2801   -1.0567 C   0  0  0  0  0  0  0  0  0  0  0  0
   -3.2329   -0.2076   -0.3886 C   0  0  0  0  0  0  0  0  0  0  0  0
   -2.1345   -0.3026    0.4496 C   0  0  0  0  0  0  0  0  0  0  0  0
   -1.8092    1.0444    0.7894 C   0  0  0  0  0  0  0  0  0  0  0  0
   -2.6487    1.8859    0.2066 N   0  0  0  0  0  0  0  0  0  0  0  0
   -3.4801    1.1204   -0.5055 N   0  0  0  0  0  0  0  0  0  0  0  0
   -4.2197    1.5587   -1.0374 H   0  0  0  0  0  0  0  0  0  0  0  0
   -0.7171    1.5310    1.6878 C   0  0  0  0  0  0  0  0  0  0  0  0
   -0.8162    1.1220    2.7057 H   0  0  0  0  0  0  0  0  0  0  0  0
    0.2752    1.2414    1.3084 H   0  0  0  0  0  0  0  0  0  0  0  0
   -0.7586    2.6259    1.7541 H   0  0  0  0  0  0  0  0  0  0  0  0
   -1.5073   -1.5071    0.8368 N   0  0  0  0  0  0  0  0  0  0  0  0
   -1.1367   -1.4424    1.7802 H   0  0  0  0  0  0  0  0  0  0  0  0
   -0.5036   -2.0415   -0.0808 C   0  0  0  0  0  0  0  0  0  0  0  0
    0.7018   -1.1459   -0.2817 C   0  0  0  0  0  0  0  0  0  0  0  0
    1.7971   -1.2349    0.5853 C   0  0  0  0  0  0  0  0  0  0  0  0
    2.8523   -0.3433    0.4759 C   0  0  0  0  0  0  0  0  0  0  0  0
    2.8326    0.6548   -0.4982 C   0  0  0  0  0  0  0  0  0  0  0  0
    1.7588    0.7510   -1.3696 C   0  0  0  0  0  0  0  0  0  0  0  0
    0.7000   -0.1492   -1.2613 C   0  0  0  0  0  0  0  0  0  0  0  0
   -0.1501   -0.0625   -1.9425 H   0  0  0  0  0  0  0  0  0  0  0  0
    1.7674    1.5399   -2.1242 H   0  0  0  0  0  0  0  0  0  0  0  0
    3.8562    1.4999   -0.5831 F   0  0  0  0  0  0  0  0  0  0  0  0
    3.8968   -0.4284    1.2958 F   0  0  0  0  0  0  0  0  0  0  0  0
    1.8488   -2.0006    1.3644 H   0  0  0  0  0  0  0  0  0  0  0  0
   -0.1825   -3.0236    0.3000 H   0  0  0  0  0  0  0  0  0  0  0  0
   -0.9912   -2.2241   -1.0514 H   0  0  0  0  0  0  0  0  0  0  0  0
   -3.7551   -1.3963   -2.1194 H   0  0  0  0  0  0  0  0  0  0  0  0
   -3.8181   -2.2324   -0.5479 H   0  0  0  0  0  0  0  0  0  0  0  0
   -5.1044   -1.0833   -1.0003 H   0  0  0  0  0  0  0  0  0  0  0  0
  1 30  1  0  0  0  0
  1 29  1  0  0  0  0
  1  2  1  0  0  0  0
  2  3  2  0  0  0  0
  3  4  1  0  0  0  0
  3 12  1  0  0  0  0
  4  8  1  0  0  0  0
  5  4  2  0  0  0  0
  6  2  1  0  0  0  0
  6  5  1  0  0  0  0
  7  6  1  0  0  0  0
  8 11  1  0  0  0  0
  8  9  1  0  0  0  0
 10  8  1  0  0  0  0
 12 13  1  0  0  0  0
 14 26  1  0  0  0  0
 14 12  1  0  0  0  0
 15 14  1  0  0  0  0
 15 16  1  0  0  0  0
 16 25  1  0  0  0  0
 17 16  2  0  0  0  0
 17 24  1  0  0  0  0
 18 17  1  0  0  0  0
 19 20  1  0  0  0  0
 19 18  2  0  0  0  0
 20 15  2  0  0  0  0
 21 20  1  0  0  0  0
 22 19  1  0  0  0  0
 23 18  1  0  0  0  0
 27 14  1  0  0  0  0
 28  1  1  0  0  0  0
M  END
$$$$
