[053403366_dft.out: Geometry 9]
 OpenBabel09282115273D

 36 37  0  0  0  0  0  0  0  0999 V2000
   -4.4456   -0.5281   -0.0292 C   0  0  0  0  0  0  0  0  0  0  0  0
   -2.9445   -0.4130   -0.0213 C   0  0  0  0  0  0  0  0  0  0  0  0
   -2.1314   -1.5389   -0.1078 C   0  0  0  0  0  0  0  0  0  0  0  0
   -0.7371   -1.4734   -0.1091 C   0  0  0  0  0  0  0  0  0  0  0  0
   -0.1339   -0.2077    0.0148 C   0  0  0  0  0  0  0  0  0  0  0  0
   -0.9274    0.9533    0.1104 C   0  0  0  0  0  0  0  0  0  0  0  0
   -2.3312    0.8497    0.0701 C   0  0  0  0  0  0  0  0  0  0  0  0
   -3.1145    1.9970    0.1883 N   0  0  0  0  0  0  0  0  0  0  0  0
   -4.0674    1.9085   -0.1393 H   0  0  0  0  0  0  0  0  0  0  0  0
   -2.6860    2.8545   -0.1344 H   0  0  0  0  0  0  0  0  0  0  0  0
   -0.3064    2.3147    0.2734 C   0  0  0  0  0  0  0  0  0  0  0  0
   -0.4037    2.9274   -0.6415 H   0  0  0  0  0  0  0  0  0  0  0  0
   -0.7893    2.8700    1.0941 H   0  0  0  0  0  0  0  0  0  0  0  0
    0.7622    2.2162    0.4973 H   0  0  0  0  0  0  0  0  0  0  0  0
    1.2828   -0.0398    0.0298 N   0  0  0  0  0  0  0  0  0  0  0  0
    1.9528    0.1428   -1.2423 C   0  0  0  0  0  0  0  0  0  0  0  0
    1.3292    0.7770   -1.8917 H   0  0  0  0  0  0  0  0  0  0  0  0
    3.3038    0.8093   -1.0163 C   0  0  0  0  0  0  0  0  0  0  0  0
    3.8837    0.8410   -1.9507 H   0  0  0  0  0  0  0  0  0  0  0  0
    4.0740    0.1028   -0.0770 O   0  0  0  0  0  0  0  0  0  0  0  0
    3.4191    0.0007    1.1635 C   0  0  0  0  0  0  0  0  0  0  0  0
    4.0913   -0.5518    1.8366 H   0  0  0  0  0  0  0  0  0  0  0  0
    2.0885   -0.7258    1.0181 C   0  0  0  0  0  0  0  0  0  0  0  0
    1.5537   -0.7308    1.9809 H   0  0  0  0  0  0  0  0  0  0  0  0
    2.3075   -1.7797    0.7478 H   0  0  0  0  0  0  0  0  0  0  0  0
    3.2472    1.0105    1.5901 H   0  0  0  0  0  0  0  0  0  0  0  0
    3.1448    1.8518   -0.6702 H   0  0  0  0  0  0  0  0  0  0  0  0
    2.1130   -0.8195   -1.7773 H   0  0  0  0  0  0  0  0  0  0  0  0
    0.0624   -2.7454   -0.2567 C   0  0  0  0  0  0  0  0  0  0  0  0
   -0.5593   -3.5406   -0.6925 H   0  0  0  0  0  0  0  0  0  0  0  0
    0.9352   -2.6094   -0.9106 H   0  0  0  0  0  0  0  0  0  0  0  0
    0.4358   -3.1165    0.7114 H   0  0  0  0  0  0  0  0  0  0  0  0
   -2.6098   -2.5200   -0.1998 H   0  0  0  0  0  0  0  0  0  0  0  0
   -4.8941   -0.0154   -0.8991 H   0  0  0  0  0  0  0  0  0  0  0  0
   -4.8894   -0.0844    0.8781 H   0  0  0  0  0  0  0  0  0  0  0  0
   -4.7618   -1.5791   -0.0748 H   0  0  0  0  0  0  0  0  0  0  0  0
  1  2  1  0  0  0  0
  1 35  1  0  0  0  0
  2  7  1  0  0  0  0
  3  2  2  0  0  0  0
  4  3  1  0  0  0  0
  4  5  2  0  0  0  0
  5 15  1  0  0  0  0
  5  6  1  0  0  0  0
  6 11  1  0  0  0  0
  7  6  2  0  0  0  0
  7  8  1  0  0  0  0
  9  8  1  0  0  0  0
 10  8  1  0  0  0  0
 11 14  1  0  0  0  0
 11 13  1  0  0  0  0
 12 11  1  0  0  0  0
 15 23  1  0  0  0  0
 16 18  1  0  0  0  0
 16 15  1  0  0  0  0
 17 16  1  0  0  0  0
 18 27  1  0  0  0  0
 18 20  1  0  0  0  0
 19 18  1  0  0  0  0
 20 21  1  0  0  0  0
 21 26  1  0  0  0  0
 21 22  1  0  0  0  0
 23 21  1  0  0  0  0
 23 24  1  0  0  0  0
 25 23  1  0  0  0  0
 28 16  1  0  0  0  0
 29  4  1  0  0  0  0
 29 32  1  0  0  0  0
 30 29  1  0  0  0  0
 31 29  1  0  0  0  0
 33  3  1  0  0  0  0
 34  1  1  0  0  0  0
 36  1  1  0  0  0  0
M  END
$$$$
