34
[053827465_dft.out: Geometry 9]
C     -0.1112820000   -2.8119500000   -0.2990050000
C     -0.9659970000   -1.5784420000   -0.1402840000
C     -2.3562170000   -1.6942160000   -0.1356460000
C     -3.1809010000   -0.5741360000   -0.0321560000
C     -2.6338060000    0.6996500000    0.0817180000
C     -1.2312500000    0.8342430000    0.1270240000
C     -0.4015830000   -0.2943930000    0.0039530000
N      1.0016980000   -0.0299800000    0.0315490000
C      1.8340580000   -0.6928110000    1.0183280000
C      3.1018150000    0.1203650000    1.2704570000
C      3.8502250000    0.3687300000   -0.0394630000
C      2.9284590000    1.0098710000   -1.0767020000
C      1.6465900000    0.1988430000   -1.2518780000
H      0.9395860000    0.7378370000   -1.9006250000
H      1.8875500000   -0.7590570000   -1.7669300000
H      3.4406620000    1.1080770000   -2.0475660000
H      2.6600040000    2.0305890000   -0.7523710000
H      4.7384760000    0.9976690000    0.1325090000
H      4.2223190000   -0.5957270000   -0.4309050000
H      3.7450940000   -0.4087190000    1.9923480000
H      2.8237590000    1.0857860000    1.7280850000
H      1.2511080000   -0.8032480000    1.9458110000
H      2.1344100000   -1.7150770000    0.7018320000
N     -0.6860020000    2.1124590000    0.2416610000
H      0.2993260000    2.0496850000    0.4879250000
H     -1.2077670000    2.6973500000    0.8899970000
N     -3.4005550000    1.8686180000    0.2160760000
H     -3.0624870000    2.6161650000   -0.3864860000
H     -4.3912750000    1.7195650000    0.0610560000
H     -4.2684190000   -0.6926130000   -0.0615000000
H     -2.8101830000   -2.6834490000   -0.2434000000
H      0.2920710000   -3.1608780000    0.6652680000
H      0.7451290000   -2.6345620000   -0.9654580000
H     -0.7005170000   -3.6364440000   -0.7247180000
