-44.16662223
 OpenBabel09032121443D

 34 35  0  0  0  0  0  0  0  0999 V2000
   -0.1450   -2.8268   -0.2634 C   0  0  0  0  0  0  0  0  0  0  0  0
   -0.9641   -1.5762   -0.1137 C   0  0  0  0  0  0  0  0  0  0  0  0
   -2.3474   -1.6826   -0.0873 C   0  0  0  0  0  0  0  0  0  0  0  0
   -3.1605   -0.5676   -0.0044 C   0  0  0  0  0  0  0  0  0  0  0  0
   -2.6075    0.7007    0.0637 C   0  0  0  0  0  0  0  0  0  0  0  0
   -1.2119    0.8274    0.0889 C   0  0  0  0  0  0  0  0  0  0  0  0
   -0.3922   -0.3047   -0.0061 C   0  0  0  0  0  0  0  0  0  0  0  0
    1.0039   -0.0243    0.0350 N   0  0  0  0  0  0  0  0  0  0  0  0
    1.8457   -0.7584    0.9512 C   0  0  0  0  0  0  0  0  0  0  0  0
    3.0727    0.0988    1.2691 C   0  0  0  0  0  0  0  0  0  0  0  0
    3.8308    0.4000   -0.0211 C   0  0  0  0  0  0  0  0  0  0  0  0
    2.8965    1.0734   -1.0230 C   0  0  0  0  0  0  0  0  0  0  0  0
    1.6499    0.2147   -1.2386 C   0  0  0  0  0  0  0  0  0  0  0  0
    0.9428    0.7298   -1.8923 H   0  0  0  0  0  0  0  0  0  0  0  0
    1.9470   -0.7296   -1.7304 H   0  0  0  0  0  0  0  0  0  0  0  0
    3.4061    1.2256   -1.9762 H   0  0  0  0  0  0  0  0  0  0  0  0
    2.5957    2.0504   -0.6393 H   0  0  0  0  0  0  0  0  0  0  0  0
    4.6902    1.0415    0.1842 H   0  0  0  0  0  0  0  0  0  0  0  0
    4.2038   -0.5355   -0.4459 H   0  0  0  0  0  0  0  0  0  0  0  0
    3.7170   -0.4275    1.9756 H   0  0  0  0  0  0  0  0  0  0  0  0
    2.7500    1.0340    1.7309 H   0  0  0  0  0  0  0  0  0  0  0  0
    1.2748   -0.9604    1.8605 H   0  0  0  0  0  0  0  0  0  0  0  0
    2.1982   -1.7180    0.5378 H   0  0  0  0  0  0  0  0  0  0  0  0
   -0.6308    2.0976    0.1513 N   0  0  0  0  0  0  0  0  0  0  0  0
    0.3549    2.0116    0.3732 H   0  0  0  0  0  0  0  0  0  0  0  0
   -1.1142    2.7218    0.7830 H   0  0  0  0  0  0  0  0  0  0  0  0
   -3.4023    1.8469    0.1904 N   0  0  0  0  0  0  0  0  0  0  0  0
   -3.0350    2.6428   -0.3126 H   0  0  0  0  0  0  0  0  0  0  0  0
   -4.3732    1.6793   -0.0328 H   0  0  0  0  0  0  0  0  0  0  0  0
   -4.2358   -0.6789   -0.0039 H   0  0  0  0  0  0  0  0  0  0  0  0
   -2.8018   -2.6606   -0.1569 H   0  0  0  0  0  0  0  0  0  0  0  0
    0.2793   -3.1357    0.6923 H   0  0  0  0  0  0  0  0  0  0  0  0
    0.6688   -2.6821   -0.9704 H   0  0  0  0  0  0  0  0  0  0  0  0
   -0.7723   -3.6376   -0.6283 H   0  0  0  0  0  0  0  0  0  0  0  0
  1  2  1  0  0  0  0
  1 32  1  0  0  0  0
  2  3  2  0  0  0  0
  2  7  1  0  0  0  0
  3  4  1  0  0  0  0
  4 30  1  0  0  0  0
  4  5  2  0  0  0  0
  5  6  1  0  0  0  0
  5 27  1  0  0  0  0
  6 24  1  0  0  0  0
  7  8  1  0  0  0  0
  7  6  2  0  0  0  0
  8  9  1  0  0  0  0
  9 10  1  0  0  0  0
  9 22  1  0  0  0  0
 10 21  1  0  0  0  0
 10 20  1  0  0  0  0
 11 18  1  0  0  0  0
 11 10  1  0  0  0  0
 12 17  1  0  0  0  0
 12 11  1  0  0  0  0
 13 12  1  0  0  0  0
 13  8  1  0  0  0  0
 14 13  1  0  0  0  0
 15 13  1  0  0  0  0
 16 12  1  0  0  0  0
 19 11  1  0  0  0  0
 23  9  1  0  0  0  0
 24 25  1  0  0  0  0
 24 26  1  0  0  0  0
 28 27  1  0  0  0  0
 29 27  1  0  0  0  0
 31  3  1  0  0  0  0
 33  1  1  0  0  0  0
 34  1  1  0  0  0  0
M  END
$$$$
