[000246470_dft.out: Geometry 16]
 OpenBabel09282115273D

 33 34  0  0  0  0  0  0  0  0999 V2000
   -3.3910   -3.1736    0.0403 C   0  0  0  0  0  0  0  0  0  0  0  0
   -3.0530   -1.7086   -0.0550 C   0  0  0  0  0  0  0  0  0  0  0  0
   -2.1268   -1.2432   -0.9966 C   0  0  0  0  0  0  0  0  0  0  0  0
   -1.8138    0.1081   -1.0977 C   0  0  0  0  0  0  0  0  0  0  0  0
   -2.4357    1.0298   -0.2502 C   0  0  0  0  0  0  0  0  0  0  0  0
   -3.4028    0.5919    0.6544 C   0  0  0  0  0  0  0  0  0  0  0  0
   -3.6849   -0.7662    0.7648 C   0  0  0  0  0  0  0  0  0  0  0  0
   -4.4231   -1.1016    1.4990 H   0  0  0  0  0  0  0  0  0  0  0  0
   -3.9151    1.3274    1.2793 H   0  0  0  0  0  0  0  0  0  0  0  0
   -2.1996    2.4406   -0.3329 N   0  0  0  0  0  0  0  0  0  0  0  0
   -1.0615    2.9202   -0.2740 N   0  0  0  0  0  0  0  0  0  0  0  0
    0.0832    2.1075   -0.0022 C   0  0  0  0  0  0  0  0  0  0  0  0
    1.1423    2.1325   -0.9116 C   0  0  0  0  0  0  0  0  0  0  0  0
    2.2620    1.3392   -0.6890 C   0  0  0  0  0  0  0  0  0  0  0  0
    2.3703    0.5529    0.4651 C   0  0  0  0  0  0  0  0  0  0  0  0
    1.3355    0.6088    1.4076 C   0  0  0  0  0  0  0  0  0  0  0  0
    0.1960    1.3736    1.1800 C   0  0  0  0  0  0  0  0  0  0  0  0
   -0.6146    1.3882    1.9115 H   0  0  0  0  0  0  0  0  0  0  0  0
    1.4140    0.0292    2.3324 H   0  0  0  0  0  0  0  0  0  0  0  0
    3.5236   -0.3985    0.6471 C   0  0  0  0  0  0  0  0  0  0  0  0
    4.4534   -0.0108    0.2093 H   0  0  0  0  0  0  0  0  0  0  0  0
    3.3104   -1.7891    0.0375 C   0  0  0  0  0  0  0  0  0  0  0  0
    4.2192   -2.5339   -0.1856 O   0  0  0  0  0  0  0  0  0  0  0  0
    2.0423   -2.1492   -0.2029 O   0  0  0  0  0  0  0  0  0  0  0  0
    1.4382   -1.4210   -0.0006 H   0  0  0  0  0  0  0  0  0  0  0  0
    3.7314   -0.5647    1.7165 H   0  0  0  0  0  0  0  0  0  0  0  0
    3.0689    1.3264   -1.4272 H   0  0  0  0  0  0  0  0  0  0  0  0
    1.0602    2.7533   -1.8067 H   0  0  0  0  0  0  0  0  0  0  0  0
   -1.0862    0.4475   -1.8377 H   0  0  0  0  0  0  0  0  0  0  0  0
   -1.6326   -1.9555   -1.6640 H   0  0  0  0  0  0  0  0  0  0  0  0
   -3.6832   -3.4528    1.0626 H   0  0  0  0  0  0  0  0  0  0  0  0
   -2.5393   -3.8028   -0.2554 H   0  0  0  0  0  0  0  0  0  0  0  0
   -4.2344   -3.4248   -0.6232 H   0  0  0  0  0  0  0  0  0  0  0  0
  1 31  1  0  0  0  0
  2  1  1  0  0  0  0
  2  7  1  0  0  0  0
  3  2  2  0  0  0  0
  4  3  1  0  0  0  0
  4  5  2  0  0  0  0
  5  6  1  0  0  0  0
  6  7  2  0  0  0  0
  6  9  1  0  0  0  0
  7  8  1  0  0  0  0
 10 11  2  0  0  0  0
 10  5  1  0  0  0  0
 11 12  1  0  0  0  0
 12 17  1  0  0  0  0
 13 14  1  0  0  0  0
 13 12  2  0  0  0  0
 14 15  2  0  0  0  0
 15 20  1  0  0  0  0
 15 16  1  0  0  0  0
 16 19  1  0  0  0  0
 17 16  2  0  0  0  0
 17 18  1  0  0  0  0
 20 26  1  0  0  0  0
 21 20  1  0  0  0  0
 22 20  1  0  0  0  0
 23 22  2  0  0  0  0
 24 25  1  0  0  0  0
 24 22  1  0  0  0  0
 27 14  1  0  0  0  0
 28 13  1  0  0  0  0
 29  4  1  0  0  0  0
 30  3  1  0  0  0  0
 32  1  1  0  0  0  0
 33  1  1  0  0  0  0
M  END
$$$$
