[010261645_dft.out: Geometry 12]
 OpenBabel09282115273D

 23 23  0  0  0  0  0  0  0  0999 V2000
   -4.1301   -0.2076    0.5948 C   0  0  0  0  0  0  0  0  0  0  0  0
   -2.6802   -0.2353    0.1887 C   0  0  0  0  0  0  0  0  0  0  0  0
   -1.9079    0.9210    0.1364 C   0  0  0  0  0  0  0  0  0  0  0  0
   -0.5480    0.8955   -0.2110 C   0  0  0  0  0  0  0  0  0  0  0  0
    0.0696   -0.3183   -0.5763 C   0  0  0  0  0  0  0  0  0  0  0  0
   -0.7123   -1.4764   -0.5291 C   0  0  0  0  0  0  0  0  0  0  0  0
   -2.0483   -1.4396   -0.1476 C   0  0  0  0  0  0  0  0  0  0  0  0
   -2.6205   -2.3717   -0.1205 H   0  0  0  0  0  0  0  0  0  0  0  0
   -0.2535   -2.4312   -0.7985 H   0  0  0  0  0  0  0  0  0  0  0  0
    1.5106   -0.4411   -1.0194 C   0  0  0  0  0  0  0  0  0  0  0  0
    1.5987   -1.2741   -1.7275 H   0  0  0  0  0  0  0  0  0  0  0  0
    1.8534    0.4783   -1.5134 H   0  0  0  0  0  0  0  0  0  0  0  0
    2.4286   -0.7779    0.1605 C   0  0  0  0  0  0  0  0  0  0  0  0
    2.7790   -1.8993    0.4005 O   0  0  0  0  0  0  0  0  0  0  0  0
    2.7843    0.2559    0.9144 O   0  0  0  0  0  0  0  0  0  0  0  0
    2.3914    1.0802    0.5618 H   0  0  0  0  0  0  0  0  0  0  0  0
    0.1591    2.1896   -0.1458 C   0  0  0  0  0  0  0  0  0  0  0  0
    1.3610    2.3515   -0.0853 O   0  0  0  0  0  0  0  0  0  0  0  0
   -0.5096    3.0823   -0.1314 H   0  0  0  0  0  0  0  0  0  0  0  0
   -2.3653    1.8834    0.3896 H   0  0  0  0  0  0  0  0  0  0  0  0
   -4.7631   -0.6986   -0.1596 H   0  0  0  0  0  0  0  0  0  0  0  0
   -4.4934    0.8211    0.7249 H   0  0  0  0  0  0  0  0  0  0  0  0
   -4.2815   -0.7396    1.5467 H   0  0  0  0  0  0  0  0  0  0  0  0
  1 22  1  0  0  0  0
  1 23  1  0  0  0  0
  2  1  1  0  0  0  0
  3  2  1  0  0  0  0
  3 20  1  0  0  0  0
  4 17  1  0  0  0  0
  4  3  2  0  0  0  0
  5  6  2  0  0  0  0
  5  4  1  0  0  0  0
  6  7  1  0  0  0  0
  7  8  1  0  0  0  0
  7  2  2  0  0  0  0
  9  6  1  0  0  0  0
 10  5  1  0  0  0  0
 10 13  1  0  0  0  0
 11 10  1  0  0  0  0
 12 10  1  0  0  0  0
 13 14  2  0  0  0  0
 13 15  1  0  0  0  0
 16 15  1  0  0  0  0
 17 19  1  0  0  0  0
 17 18  2  0  0  0  0
 21  1  1  0  0  0  0
M  END
$$$$
