23
[010261645_dft.out: Geometry 12]
C     -4.1300820000   -0.2075650000    0.5948120000
C     -2.6801830000   -0.2353220000    0.1886830000
C     -1.9078850000    0.9210460000    0.1363620000
C     -0.5480030000    0.8955240000   -0.2110150000
C      0.0696180000   -0.3183000000   -0.5763100000
C     -0.7122990000   -1.4764280000   -0.5290600000
C     -2.0483270000   -1.4395780000   -0.1475820000
H     -2.6205060000   -2.3717230000   -0.1204750000
H     -0.2534860000   -2.4312310000   -0.7985170000
C      1.5105790000   -0.4410660000   -1.0194170000
H      1.5986790000   -1.2741420000   -1.7274960000
H      1.8534420000    0.4783020000   -1.5134250000
C      2.4285830000   -0.7779070000    0.1605500000
O      2.7789540000   -1.8992910000    0.4005250000
O      2.7842640000    0.2558990000    0.9143540000
H      2.3913980000    1.0802290000    0.5617560000
C      0.1591370000    2.1895740000   -0.1457610000
O      1.3609500000    2.3514510000   -0.0853160000
H     -0.5095840000    3.0823020000   -0.1314450000
H     -2.3652780000    1.8834400000    0.3896180000
H     -4.7631150000   -0.6985990000   -0.1595860000
H     -4.4934270000    0.8211170000    0.7249290000
H     -4.2815280000   -0.7396310000    1.5467160000
