-38.70189215
 OpenBabel09032116333D

 23 23  0  0  0  0  0  0  0  0999 V2000
   -4.0863   -0.2160    0.6090 C   0  0  0  0  0  0  0  0  0  0  0  0
   -2.6486   -0.2356    0.1939 C   0  0  0  0  0  0  0  0  0  0  0  0
   -1.8931    0.9184    0.1430 C   0  0  0  0  0  0  0  0  0  0  0  0
   -0.5381    0.9014   -0.2162 C   0  0  0  0  0  0  0  0  0  0  0  0
    0.0635   -0.3136   -0.5910 C   0  0  0  0  0  0  0  0  0  0  0  0
   -0.7108   -1.4693   -0.5496 C   0  0  0  0  0  0  0  0  0  0  0  0
   -2.0318   -1.4379   -0.1542 C   0  0  0  0  0  0  0  0  0  0  0  0
   -2.6025   -2.3543   -0.1209 H   0  0  0  0  0  0  0  0  0  0  0  0
   -0.2549   -2.4085   -0.8246 H   0  0  0  0  0  0  0  0  0  0  0  0
    1.4896   -0.4244   -1.0371 C   0  0  0  0  0  0  0  0  0  0  0  0
    1.5873   -1.2392   -1.7549 H   0  0  0  0  0  0  0  0  0  0  0  0
    1.8498    0.5045   -1.4798 H   0  0  0  0  0  0  0  0  0  0  0  0
    2.3480   -0.7822    0.1890 C   0  0  0  0  0  0  0  0  0  0  0  0
    2.6411   -1.9134    0.4520 O   0  0  0  0  0  0  0  0  0  0  0  0
    2.7096    0.2448    0.9393 O   0  0  0  0  0  0  0  0  0  0  0  0
    2.3648    1.1010    0.5870 H   0  0  0  0  0  0  0  0  0  0  0  0
    0.1678    2.1739   -0.1806 C   0  0  0  0  0  0  0  0  0  0  0  0
    1.3700    2.3419   -0.1177 O   0  0  0  0  0  0  0  0  0  0  0  0
   -0.5024    3.0517   -0.1951 H   0  0  0  0  0  0  0  0  0  0  0  0
   -2.3430    1.8644    0.4109 H   0  0  0  0  0  0  0  0  0  0  0  0
   -4.7067   -0.6920   -0.1485 H   0  0  0  0  0  0  0  0  0  0  0  0
   -4.4365    0.8015    0.7603 H   0  0  0  0  0  0  0  0  0  0  0  0
   -4.2149   -0.7690    1.5387 H   0  0  0  0  0  0  0  0  0  0  0  0
  1 22  1  0  0  0  0
  1 23  1  0  0  0  0
  2  1  1  0  0  0  0
  3  2  1  0  0  0  0
  3 20  1  0  0  0  0
  4 17  1  0  0  0  0
  4  3  2  0  0  0  0
  5  6  2  0  0  0  0
  5  4  1  0  0  0  0
  6  7  1  0  0  0  0
  7  8  1  0  0  0  0
  7  2  2  0  0  0  0
  9  6  1  0  0  0  0
 10  5  1  0  0  0  0
 10 13  1  0  0  0  0
 11 10  1  0  0  0  0
 12 10  1  0  0  0  0
 13 14  2  0  0  0  0
 13 15  1  0  0  0  0
 16 15  1  0  0  0  0
 17 18  2  0  0  0  0
 19 17  1  0  0  0  0
 21  1  1  0  0  0  0
M  END
$$$$
