-41.07890322
 OpenBabel09032119243D

 22 22  0  0  0  0  0  0  0  0999 V2000
   -0.6194   -2.1155    0.4893 C   0  0  0  0  0  0  0  0  0  0  0  0
   -0.1312   -0.7030    0.4224 C   0  0  0  0  0  0  0  0  0  0  0  0
    1.1947   -0.4079    0.1137 C   0  0  0  0  0  0  0  0  0  0  0  0
    1.6468    0.9129    0.0324 C   0  0  0  0  0  0  0  0  0  0  0  0
    0.7607    1.9624    0.2670 C   0  0  0  0  0  0  0  0  0  0  0  0
   -0.5501    1.6811    0.5871 C   0  0  0  0  0  0  0  0  0  0  0  0
   -0.9976    0.3677    0.6753 C   0  0  0  0  0  0  0  0  0  0  0  0
   -2.4480    0.1232    1.0122 C   0  0  0  0  0  0  0  0  0  0  0  0
   -2.5722   -0.7970    1.5795 H   0  0  0  0  0  0  0  0  0  0  0  0
   -3.2058    0.0082   -0.2947 C   0  0  0  0  0  0  0  0  0  0  0  0
   -3.4024   -1.0096   -0.8997 O   0  0  0  0  0  0  0  0  0  0  0  0
   -3.6127    1.2030   -0.7287 O   0  0  0  0  0  0  0  0  0  0  0  0
   -4.0615    1.1261   -1.5857 H   0  0  0  0  0  0  0  0  0  0  0  0
   -2.8459    0.9699    1.5699 H   0  0  0  0  0  0  0  0  0  0  0  0
   -1.2416    2.4896    0.7696 H   0  0  0  0  0  0  0  0  0  0  0  0
    1.1121    2.9803    0.1982 H   0  0  0  0  0  0  0  0  0  0  0  0
    2.9951    1.1945   -0.2880 C   0  0  0  0  0  0  0  0  0  0  0  0
    4.0832    1.4450   -0.5458 N   0  0  0  0  0  0  0  0  0  0  0  0
    2.3483   -1.6641   -0.1870 Cl  0  0  0  0  0  0  0  0  0  0  0  0
   -0.8463   -2.3875    1.5202 H   0  0  0  0  0  0  0  0  0  0  0  0
    0.1353   -2.7999    0.1161 H   0  0  0  0  0  0  0  0  0  0  0  0
   -1.5234   -2.2326   -0.1038 H   0  0  0  0  0  0  0  0  0  0  0  0
  1 20  1  0  0  0  0
  2  1  1  0  0  0  0
  2  7  1  0  0  0  0
  3  2  2  0  0  0  0
  4  3  1  0  0  0  0
  4  5  2  0  0  0  0
  5  6  1  0  0  0  0
  6  7  2  0  0  0  0
  6 15  1  0  0  0  0
  7  8  1  0  0  0  0
  8 14  1  0  0  0  0
  8  9  1  0  0  0  0
 10  8  1  0  0  0  0
 11 10  2  0  0  0  0
 12 10  1  0  0  0  0
 13 12  1  0  0  0  0
 16  5  1  0  0  0  0
 17  4  1  0  0  0  0
 18 17  3  0  0  0  0
 19  3  1  0  0  0  0
 21  1  1  0  0  0  0
 22  1  1  0  0  0  0
M  END
$$$$
