-52.40534012
 OpenBabel09032119483D

 25 25  0  0  0  0  0  0  0  0999 V2000
    1.6564    1.2464   -0.8009 C   0  0  0  0  0  0  0  0  0  0  0  0
    0.3959    1.6340   -0.3955 C   0  0  0  0  0  0  0  0  0  0  0  0
   -0.4657    0.7140    0.1976 C   0  0  0  0  0  0  0  0  0  0  0  0
   -0.0467   -0.5975    0.3743 C   0  0  0  0  0  0  0  0  0  0  0  0
    1.2211   -0.9739   -0.0344 C   0  0  0  0  0  0  0  0  0  0  0  0
    2.0879   -0.0673   -0.6282 C   0  0  0  0  0  0  0  0  0  0  0  0
    3.4770   -0.4829   -1.0140 C   0  0  0  0  0  0  0  0  0  0  0  0
    3.5062   -1.5206   -1.3455 H   0  0  0  0  0  0  0  0  0  0  0  0
    4.4559   -0.3422    0.1542 C   0  0  0  0  0  0  0  0  0  0  0  0
    5.3154   -1.1376    0.3901 O   0  0  0  0  0  0  0  0  0  0  0  0
    4.2998    0.7630    0.8945 O   0  0  0  0  0  0  0  0  0  0  0  0
    3.5362    1.2886    0.6073 H   0  0  0  0  0  0  0  0  0  0  0  0
    3.8571    0.1473   -1.8228 H   0  0  0  0  0  0  0  0  0  0  0  0
    1.5373   -1.9960    0.1082 H   0  0  0  0  0  0  0  0  0  0  0  0
   -0.6868   -1.3457    0.8132 H   0  0  0  0  0  0  0  0  0  0  0  0
   -1.6811    1.2339    0.5804 O   0  0  0  0  0  0  0  0  0  0  0  0
   -2.6727    0.4125    1.1140 C   0  0  0  0  0  0  0  0  0  0  0  0
   -2.2864   -0.3433    1.8081 H   0  0  0  0  0  0  0  0  0  0  0  0
   -3.4922   -0.3006    0.0289 C   0  0  0  0  0  0  0  0  0  0  0  0
   -2.7769   -1.1738   -0.6899 F   0  0  0  0  0  0  0  0  0  0  0  0
   -4.0397    0.5575   -0.8338 F   0  0  0  0  0  0  0  0  0  0  0  0
   -4.4966   -0.9950    0.5878 F   0  0  0  0  0  0  0  0  0  0  0  0
   -3.3643    1.0733    1.6469 H   0  0  0  0  0  0  0  0  0  0  0  0
    0.0517    2.6464   -0.5313 H   0  0  0  0  0  0  0  0  0  0  0  0
    2.2998    1.9712   -1.2815 H   0  0  0  0  0  0  0  0  0  0  0  0
  1  6  2  0  0  0  0
  1  2  1  0  0  0  0
  2  3  2  0  0  0  0
  3  4  1  0  0  0  0
  3 16  1  0  0  0  0
  4 15  1  0  0  0  0
  5 14  1  0  0  0  0
  5  4  2  0  0  0  0
  6  5  1  0  0  0  0
  7  6  1  0  0  0  0
  7  9  1  0  0  0  0
  8  7  1  0  0  0  0
  9 10  2  0  0  0  0
  9 11  1  0  0  0  0
 12 11  1  0  0  0  0
 13  7  1  0  0  0  0
 16 17  1  0  0  0  0
 17 23  1  0  0  0  0
 17 18  1  0  0  0  0
 19 22  1  0  0  0  0
 19 17  1  0  0  0  0
 20 19  1  0  0  0  0
 21 19  1  0  0  0  0
 24  2  1  0  0  0  0
 25  1  1  0  0  0  0
M  END
$$$$
