[019622775_dft.out: Geometry 14]
 OpenBabel09282115273D

 25 25  0  0  0  0  0  0  0  0999 V2000
    1.6729    1.3030   -0.9060 C   0  0  0  0  0  0  0  0  0  0  0  0
    0.3764    1.6774   -0.5769 C   0  0  0  0  0  0  0  0  0  0  0  0
   -0.4995    0.7467   -0.0109 C   0  0  0  0  0  0  0  0  0  0  0  0
   -0.0639   -0.5607    0.2179 C   0  0  0  0  0  0  0  0  0  0  0  0
    1.2430   -0.9161   -0.1090 C   0  0  0  0  0  0  0  0  0  0  0  0
    2.1345   -0.0008   -0.6757 C   0  0  0  0  0  0  0  0  0  0  0  0
    3.5582   -0.3941   -0.9806 C   0  0  0  0  0  0  0  0  0  0  0  0
    3.6222   -1.3981   -1.4221 H   0  0  0  0  0  0  0  0  0  0  0  0
    4.5062   -0.3923    0.2212 C   0  0  0  0  0  0  0  0  0  0  0  0
    5.5276   -1.0146    0.2374 O   0  0  0  0  0  0  0  0  0  0  0  0
    4.1482    0.3836    1.2534 O   0  0  0  0  0  0  0  0  0  0  0  0
    3.2765    0.7690    1.0908 H   0  0  0  0  0  0  0  0  0  0  0  0
    3.9992    0.2952   -1.7190 H   0  0  0  0  0  0  0  0  0  0  0  0
    1.5700   -1.9434    0.0761 H   0  0  0  0  0  0  0  0  0  0  0  0
   -0.7353   -1.3204    0.6173 H   0  0  0  0  0  0  0  0  0  0  0  0
   -1.7441    1.2159    0.2776 O   0  0  0  0  0  0  0  0  0  0  0  0
   -2.6369    0.4736    1.0488 C   0  0  0  0  0  0  0  0  0  0  0  0
   -2.1361   -0.1878    1.7736 H   0  0  0  0  0  0  0  0  0  0  0  0
   -3.5799   -0.3607    0.1960 C   0  0  0  0  0  0  0  0  0  0  0  0
   -2.9295   -1.2756   -0.5304 F   0  0  0  0  0  0  0  0  0  0  0  0
   -4.2793    0.3981   -0.6427 F   0  0  0  0  0  0  0  0  0  0  0  0
   -4.4386   -1.0053    0.9927 F   0  0  0  0  0  0  0  0  0  0  0  0
   -3.2605    1.1854    1.6084 H   0  0  0  0  0  0  0  0  0  0  0  0
    0.0142    2.6916   -0.7548 H   0  0  0  0  0  0  0  0  0  0  0  0
    2.3431    2.0422   -1.3552 H   0  0  0  0  0  0  0  0  0  0  0  0
  1  6  2  0  0  0  0
  1  2  1  0  0  0  0
  2  3  2  0  0  0  0
  3  4  1  0  0  0  0
  3 16  1  0  0  0  0
  4 15  1  0  0  0  0
  5 14  1  0  0  0  0
  5  4  2  0  0  0  0
  6  5  1  0  0  0  0
  7  6  1  0  0  0  0
  7  9  1  0  0  0  0
  8  7  1  0  0  0  0
  9 10  2  0  0  0  0
  9 11  1  0  0  0  0
 12 11  1  0  0  0  0
 13  7  1  0  0  0  0
 16 17  1  0  0  0  0
 17 23  1  0  0  0  0
 17 18  1  0  0  0  0
 19 22  1  0  0  0  0
 19 17  1  0  0  0  0
 20 19  1  0  0  0  0
 21 19  1  0  0  0  0
 24  2  1  0  0  0  0
 25  1  1  0  0  0  0
M  END
$$$$
