-47.32775933
 OpenBabel09032122543D

 29 30  0  0  0  0  0  0  0  0999 V2000
   -4.6731   -0.0581    0.6958 C   0  0  0  0  0  0  0  0  0  0  0  0
   -3.2643   -0.3150    0.2629 C   0  0  0  0  0  0  0  0  0  0  0  0
   -2.3414    0.7101    0.1657 C   0  0  0  0  0  0  0  0  0  0  0  0
   -1.0348    0.4641   -0.2468 C   0  0  0  0  0  0  0  0  0  0  0  0
   -0.6064   -0.8285   -0.5644 C   0  0  0  0  0  0  0  0  0  0  0  0
   -1.5420   -1.8507   -0.4468 C   0  0  0  0  0  0  0  0  0  0  0  0
   -2.8428   -1.6040   -0.0551 C   0  0  0  0  0  0  0  0  0  0  0  0
   -3.5433   -2.4232    0.0161 H   0  0  0  0  0  0  0  0  0  0  0  0
   -1.2386   -2.8634   -0.6690 H   0  0  0  0  0  0  0  0  0  0  0  0
    0.8100   -1.1400   -0.9263 C   0  0  0  0  0  0  0  0  0  0  0  0
    0.9438   -2.2205   -1.0233 H   0  0  0  0  0  0  0  0  0  0  0  0
    1.7876   -0.6458    0.1440 C   0  0  0  0  0  0  0  0  0  0  0  0
    1.4197   -0.2401    1.2197 O   0  0  0  0  0  0  0  0  0  0  0  0
    3.2059   -0.7270   -0.2550 C   0  0  0  0  0  0  0  0  0  0  0  0
    4.0852    0.4468    0.1287 C   0  0  0  0  0  0  0  0  0  0  0  0
    4.2420   -0.8437    0.8400 C   0  0  0  0  0  0  0  0  0  0  0  0
    5.1093   -1.4545    0.6413 H   0  0  0  0  0  0  0  0  0  0  0  0
    3.8630   -0.9123    1.8484 H   0  0  0  0  0  0  0  0  0  0  0  0
    4.8339    0.7552   -0.5841 H   0  0  0  0  0  0  0  0  0  0  0  0
    3.5979    1.2583    0.6461 H   0  0  0  0  0  0  0  0  0  0  0  0
    3.4028   -1.2100   -1.2022 H   0  0  0  0  0  0  0  0  0  0  0  0
    1.0865   -0.6727   -1.8732 H   0  0  0  0  0  0  0  0  0  0  0  0
   -0.1653    1.6070   -0.3374 N   0  0  0  0  0  0  0  0  0  0  0  0
   -0.4794    2.5995    0.2826 O   0  0  0  0  0  0  0  0  0  0  0  0
    0.8151    1.5372   -1.0530 O   0  0  0  0  0  0  0  0  0  0  0  0
   -2.6169    1.7263    0.4060 H   0  0  0  0  0  0  0  0  0  0  0  0
   -5.3682   -0.3418   -0.0933 H   0  0  0  0  0  0  0  0  0  0  0  0
   -4.8221    0.9917    0.9315 H   0  0  0  0  0  0  0  0  0  0  0  0
   -4.9108   -0.6517    1.5771 H   0  0  0  0  0  0  0  0  0  0  0  0
  1 28  1  0  0  0  0
  1 29  1  0  0  0  0
  2  1  1  0  0  0  0
  3  2  1  0  0  0  0
  3 26  1  0  0  0  0
  4  3  2  0  0  0  0
  5  6  2  0  0  0  0
  5  4  1  0  0  0  0
  6  7  1  0  0  0  0
  7  8  1  0  0  0  0
  7  2  2  0  0  0  0
  9  6  1  0  0  0  0
 10  5  1  0  0  0  0
 10 12  1  0  0  0  0
 11 10  1  0  0  0  0
 12 13  2  0  0  0  0
 14 15  1  0  0  0  0
 14 12  1  0  0  0  0
 14 16  1  0  0  0  0
 15 20  1  0  0  0  0
 15 16  1  0  0  0  0
 16 18  1  0  0  0  0
 17 16  1  0  0  0  0
 19 15  1  0  0  0  0
 21 14  1  0  0  0  0
 22 10  1  0  0  0  0
 23  4  1  0  0  0  0
 23 24  2  0  0  0  0
 25 23  2  0  0  0  0
 27  1  1  0  0  0  0
M  END
$$$$
